# File generated by Flopy version 3.9.5 on 01/15/2026 at 20:12:26.
BEGIN options
END options

BEGIN dimensions
  MAXMVR  935
  MAXPACKAGES  3
END dimensions

BEGIN packages
    OPEN/CLOSE  'external/sv.mvr_packages.txt'
END packages

BEGIN period  1
    OPEN/CLOSE  'external/sv.mvr_perioddata_1.txt'
END period  1

