# File generated by Flopy version 3.9.5 on 01/15/2026 at 16:56:46.
BEGIN options
END options

BEGIN griddata
  strt
    CONSTANT      11.00000000
END griddata

