# File generated by Flopy version 3.9.5 on 01/15/2026 at 16:56:46.
BEGIN options
  SAVE_FLOWS
  NEWTON  UNDER_RELAXATION
END options

BEGIN packages
  DISV6  sv.disv  disv
  IC6  sv.ic  ic
  NPF6  sv.npf  npf
  STO6  sv.sto  sto
  RCH6  sv.rcha  rcha_0
  EVT6  sv.evta  evta_0
  WEL6  sv.wel  wel_0
  DRN6  sv.drn  drn-1
  SFR6  sv.sfr  sfr-1
  LAK6  sv.lak  lak-1
  MVR6  sv.mvr  mvr
  OC6  sv.oc  oc
  OBS6  sv.gwf.obs  gwf-obs
END packages

