# File generated by Flopy version 3.9.5 on 01/15/2026 at 16:56:46.
BEGIN options
  BUDGET  FILEOUT  sv.cbc
  HEAD  FILEOUT  sv.hds
END options

BEGIN period  1
  SAVE  HEAD  ALL
  SAVE  BUDGET  ALL
  PRINT  BUDGET  ALL
END period  1

