# File generated by Flopy version 3.9.5 on 12/19/2025 at 12:32:25.
BEGIN options
END options

BEGIN continuous  FILEOUT  sv.riv.obs.csv
  PF  RIV  PF
  RIVFLOW  RIV  RIV
END continuous  FILEOUT  sv.riv.obs.csv

