# File generated by Flopy version 3.9.5 on 12/19/2025 at 12:32:25.
BEGIN options
  READASARRAYS
END options

BEGIN period  1
  recharge
    INTERNAL  FACTOR  1.0
         0.00365000       0.00365000       0.00365000       0.00365000       0.00365000       0.00365000       0.00365000       0.00365000       0.00365000       0.00365000       0.00365000       0.00365000       0.00365000       0.00365000       0.00365000       0.00365000       0.00365000       0.00365000       0.00365000       0.00365000       0.00365000       0.00365000       0.00365000       0.00365000       0.00365000
         0.00365000       0.00365000       0.00365000       0.00365000       0.00365000       0.00365000       0.00365000       0.00365000       0.00365000       0.00365000       0.00365000       0.00365000       0.00365000       0.00365000       0.00365000       0.00365000       0.00365000       0.00365000       0.00365000       0.00365000       0.00365000       0.00365000       0.00365000       0.00365000       0.00365000
         0.00365000       0.00365000       0.00365000       0.00365000       0.00365000       0.00365000       0.00365000       0.00365000       0.00365000       0.00365000       0.00365000       0.00365000       0.00365000       0.00365000       0.00365000       0.00365000       0.00365000       0.00365000       0.00365000       0.00365000       0.00365000       0.00365000       0.00365000       0.00365000       0.00365000
         0.00365000       0.00365000       0.00365000       0.00205000       0.00205000       0.00205000       0.00205000       0.00365000       0.00365000       0.00365000       0.00365000       0.00365000       0.00365000       0.00365000       0.00365000       0.00365000       0.00365000       0.00365000       0.00365000       0.00365000       0.00365000       0.00365000       0.00365000       0.00365000       0.00365000
         0.00365000       0.00365000       0.00205000       0.00205000       0.00205000       0.00205000       0.00205000       0.00365000       0.00365000       0.00365000       0.00365000       0.00365000       0.00365000       0.00365000       0.00365000       0.00365000       0.00365000       0.00365000       0.00365000       0.00365000       0.00365000       0.00365000       0.00365000       0.00365000       0.00365000
         0.00365000       0.00365000       0.00205000       0.00205000       0.00205000       0.00205000       0.00205000       0.00365000       0.00365000       0.00365000       0.00365000       0.00365000       0.00365000       0.00365000       0.00365000       0.00365000       0.00365000       0.00365000       0.00365000       0.00365000       0.00365000       0.00365000       0.00365000       0.00365000       0.00365000
         0.00365000       0.00365000       0.00205000       0.00205000       0.00205000       0.00205000       0.00205000       0.00365000       0.00365000       0.00365000       0.00365000       0.00365000       0.00365000       0.00365000       0.00365000       0.00365000       0.00365000       0.00365000       0.00365000       0.00365000       0.00365000       0.00365000       0.00365000       0.00365000       0.00365000
         0.00365000       0.00365000       0.00205000       0.00205000       0.00205000       0.00205000       0.00205000       0.00365000       0.00365000       0.00365000       0.00365000       0.00365000       0.00365000       0.00365000       0.00365000       0.00365000       0.00365000       0.00365000       0.00365000       0.00365000       0.00365000       0.00365000       0.00365000       0.00365000       0.00365000
         0.00365000       0.00365000       0.00205000       0.00205000       0.00205000       0.00205000       0.00205000       0.00365000       0.00365000       0.00365000       0.00365000       0.00365000       0.00365000       0.00365000       0.00365000       0.00365000       0.00365000       0.00365000       0.00365000       0.00365000       0.00365000       0.00365000       0.00365000       0.00365000       0.00365000
         0.00365000       0.00365000       0.00205000       0.00205000       0.00205000       0.00205000       0.00205000       0.00205000       0.00365000       0.00365000       0.00365000       0.00365000       0.00365000       0.00365000       0.00365000       0.00365000       0.00365000       0.00365000       0.00365000       0.00365000       0.00365000       0.00365000       0.00365000       0.00365000       0.00365000
         0.00365000       0.00365000       0.00365000       0.00205000       0.00205000       0.00205000       0.00205000       0.00205000       0.00365000       0.00365000       0.00365000       0.00365000       0.00365000       0.00365000       0.00365000       0.00365000       0.00365000       0.00365000       0.00365000       0.00365000       0.00365000       0.00365000       0.00365000       0.00365000       0.00365000
         0.00365000       0.00365000       0.00365000       0.00205000       0.00205000       0.00205000       0.00205000       0.00205000       0.00205000       0.00365000       0.00365000       0.00365000       0.00365000       0.00365000       0.00365000       0.00365000       0.00365000       0.00365000       0.00365000       0.00365000       0.00365000       0.00365000       0.00365000       0.00365000       0.00365000
         0.00365000       0.00365000       0.00365000       0.00365000       0.00205000       0.00205000       0.00205000       0.00205000       0.00205000       0.00365000       0.00365000       0.00365000       0.00365000       0.00365000       0.00365000       0.00365000       0.00365000       0.00365000       0.00365000       0.00365000       0.00365000       0.00365000       0.00365000       0.00365000       0.00365000
         0.00365000       0.00365000       0.00365000       0.00365000       0.00205000       0.00205000       0.00205000       0.00205000       0.00205000       0.00365000       0.00365000       0.00365000       0.00365000       0.00365000       0.00365000       0.00365000       0.00365000       0.00365000       0.00365000       0.00365000       0.00365000       0.00365000       0.00365000       0.00365000       0.00365000
         0.00365000       0.00365000       0.00365000       0.00365000       0.00205000       0.00205000       0.00205000       0.00205000       0.00205000       0.00365000       0.00365000       0.00365000       0.00365000       0.00365000       0.00365000       0.00365000       0.00365000       0.00365000       0.00365000       0.00365000       0.00365000       0.00365000       0.00365000       0.00365000       0.00365000
         0.00365000       0.00365000       0.00365000       0.00365000       0.00365000       0.00205000       0.00205000       0.00205000       0.00205000       0.00365000       0.00365000       0.00365000       0.00365000       0.00365000       0.00365000       0.00365000       0.00365000       0.00365000       0.00365000       0.00365000       0.00365000       0.00365000       0.00365000       0.00365000       0.00365000
         0.00365000       0.00365000       0.00365000       0.00365000       0.00365000       0.00365000       0.00365000       0.00365000       0.00365000       0.00365000       0.00365000       0.00365000       0.00365000       0.00365000       0.00365000       0.00365000       0.00365000       0.00365000       0.00365000       0.00365000       0.00365000       0.00365000       0.00365000       0.00365000       0.00365000
         0.00365000       0.00365000       0.00365000       0.00365000       0.00365000       0.00365000       0.00365000       0.00365000       0.00365000       0.00365000       0.00365000       0.00365000       0.00365000       0.00365000       0.00365000       0.00365000       0.00365000       0.00365000       0.00365000       0.00365000       0.00365000       0.00365000       0.00365000       0.00365000       0.00365000
         0.00365000       0.00365000       0.00365000       0.00365000       0.00365000       0.00365000       0.00365000       0.00365000       0.00365000       0.00365000       0.00365000       0.00365000       0.00365000       0.00365000       0.00365000       0.00365000       0.00365000       0.00365000       0.00365000       0.00365000       0.00365000       0.00365000       0.00365000       0.00365000       0.00365000
         0.00365000       0.00365000       0.00365000       0.00365000       0.00365000       0.00365000       0.00365000       0.00365000       0.00365000       0.00365000       0.00365000       0.00365000       0.00365000       0.00365000       0.00365000       0.00365000       0.00365000       0.00365000       0.00365000       0.00365000       0.00365000       0.00365000       0.00365000       0.00365000       0.00365000
         0.00365000       0.00365000       0.00365000       0.00365000       0.00365000       0.00365000       0.00365000       0.00365000       0.00365000       0.00365000       0.00365000       0.00365000       0.00365000       0.00365000       0.00365000       0.00365000       0.00365000       0.00365000       0.00365000       0.00365000       0.00365000       0.00365000       0.00365000       0.00365000       0.00365000
         0.00365000       0.00365000       0.00365000       0.00365000       0.00365000       0.00365000       0.00365000       0.00365000       0.00365000       0.00365000       0.00365000       0.00365000       0.00365000       0.00365000       0.00365000       0.00365000       0.00365000       0.00365000       0.00365000       0.00365000       0.00365000       0.00365000       0.00365000       0.00365000       0.00365000
         0.00365000       0.00365000       0.00365000       0.00365000       0.00365000       0.00365000       0.00365000       0.00365000       0.00365000       0.00365000       0.00365000       0.00365000       0.00365000       0.00365000       0.00365000       0.00365000       0.00365000       0.00365000       0.00365000       0.00365000       0.00365000       0.00365000       0.00365000       0.00365000       0.00365000
         0.00365000       0.00365000       0.00365000       0.00365000       0.00365000       0.00365000       0.00365000       0.00365000       0.00365000       0.00365000       0.00365000       0.00365000       0.00365000       0.00365000       0.00365000       0.00365000       0.00365000       0.00365000       0.00365000       0.00365000       0.00365000       0.00365000       0.00365000       0.00365000       0.00365000
         0.00365000       0.00365000       0.00365000       0.00365000       0.00365000       0.00365000       0.00365000       0.00365000       0.00365000       0.00365000       0.00365000       0.00365000       0.00365000       0.00365000       0.00365000       0.00365000       0.00365000       0.00365000       0.00365000       0.00365000       0.00365000       0.00365000       0.00365000       0.00365000       0.00365000
         0.00365000       0.00365000       0.00365000       0.00365000       0.00365000       0.00365000       0.00365000       0.00365000       0.00365000       0.00365000       0.00365000       0.00365000       0.00365000       0.00365000       0.00365000       0.00365000       0.00365000       0.00365000       0.00365000       0.00365000       0.00365000       0.00365000       0.00365000       0.00365000       0.00365000
         0.00365000       0.00365000       0.00365000       0.00365000       0.00365000       0.00365000       0.00365000       0.00365000       0.00365000       0.00365000       0.00365000       0.00365000       0.00365000       0.00365000       0.00365000       0.00365000       0.00365000       0.00365000       0.00365000       0.00365000       0.00365000       0.00365000       0.00365000       0.00365000       0.00365000
         0.00365000       0.00365000       0.00365000       0.00365000       0.00365000       0.00365000       0.00365000       0.00365000       0.00365000       0.00365000       0.00365000       0.00365000       0.00365000       0.00365000       0.00365000       0.00365000       0.00365000       0.00365000       0.00365000       0.00365000       0.00365000       0.00365000       0.00365000       0.00365000       0.00365000
         0.00365000       0.00365000       0.00365000       0.00365000       0.00365000       0.00365000       0.00365000       0.00365000       0.00365000       0.00365000       0.00365000       0.00365000       0.00365000       0.00365000       0.00365000       0.00365000       0.00365000       0.00365000       0.00365000       0.00365000       0.00365000       0.00365000       0.00365000       0.00365000       0.00365000
         0.00365000       0.00365000       0.00365000       0.00365000       0.00365000       0.00365000       0.00365000       0.00365000       0.00365000       0.00365000       0.00365000       0.00365000       0.00365000       0.00365000       0.00365000       0.00365000       0.00365000       0.00365000       0.00365000       0.00365000       0.00365000       0.00365000       0.00365000       0.00365000       0.00365000
         0.00365000       0.00365000       0.00365000       0.00365000       0.00365000       0.00365000       0.00365000       0.00365000       0.00365000       0.00365000       0.00365000       0.00365000       0.00365000       0.00365000       0.00365000       0.00365000       0.00365000       0.00365000       0.00365000       0.00365000       0.00365000       0.00365000       0.00365000       0.00365000       0.00365000
         0.00365000       0.00365000       0.00365000       0.00365000       0.00365000       0.00365000       0.00365000       0.00365000       0.00365000       0.00365000       0.00365000       0.00365000       0.00365000       0.00365000       0.00365000       0.00365000       0.00365000       0.00365000       0.00365000       0.00365000       0.00365000       0.00365000       0.00365000       0.00365000       0.00365000
         0.00365000       0.00365000       0.00365000       0.00365000       0.00365000       0.00365000       0.00365000       0.00365000       0.00365000       0.00365000       0.00365000       0.00365000       0.00365000       0.00365000       0.00365000       0.00365000       0.00365000       0.00365000       0.00365000       0.00365000       0.00365000       0.00365000       0.00365000       0.00365000       0.00365000
         0.00365000       0.00365000       0.00365000       0.00365000       0.00365000       0.00365000       0.00365000       0.00365000       0.00365000       0.00365000       0.00365000       0.00365000       0.00365000       0.00365000       0.00365000       0.00365000       0.00365000       0.00365000       0.00365000       0.00365000       0.00365000       0.00365000       0.00365000       0.00365000       0.00365000
         0.00365000       0.00365000       0.00365000       0.00365000       0.00365000       0.00365000       0.00365000       0.00365000       0.00365000       0.00365000       0.00365000       0.00365000       0.00365000       0.00365000       0.00365000       0.00365000       0.00365000       0.00365000       0.00365000       0.00365000       0.00365000       0.00365000       0.00365000       0.00365000       0.00365000
         0.00365000       0.00365000       0.00365000       0.00365000       0.00365000       0.00365000       0.00365000       0.00365000       0.00365000       0.00365000       0.00365000       0.00365000       0.00365000       0.00365000       0.00365000       0.00365000       0.00365000       0.00365000       0.00365000       0.00365000       0.00365000       0.00365000       0.00365000       0.00365000       0.00365000
         0.00365000       0.00365000       0.00365000       0.00365000       0.00365000       0.00365000       0.00365000       0.00365000       0.00365000       0.00365000       0.00365000       0.00365000       0.00365000       0.00365000       0.00365000       0.00365000       0.00365000       0.00365000       0.00365000       0.00365000       0.00365000       0.00365000       0.00365000       0.00365000       0.00365000
         0.00365000       0.00365000       0.00365000       0.00365000       0.00365000       0.00365000       0.00365000       0.00365000       0.00365000       0.00365000       0.00365000       0.00365000       0.00365000       0.00365000       0.00365000       0.00365000       0.00365000       0.00365000       0.00365000       0.00365000       0.00365000       0.00365000       0.00365000       0.00365000       0.00365000
         0.00365000       0.00365000       0.00365000       0.00365000       0.00365000       0.00365000       0.00365000       0.00365000       0.00365000       0.00365000       0.00365000       0.00365000       0.00365000       0.00365000       0.00365000       0.00365000       0.00365000       0.00365000       0.00365000       0.00365000       0.00365000       0.00365000       0.00365000       0.00365000       0.00365000
         0.00365000       0.00365000       0.00365000       0.00365000       0.00365000       0.00365000       0.00365000       0.00365000       0.00365000       0.00365000       0.00365000       0.00365000       0.00365000       0.00365000       0.00365000       0.00365000       0.00365000       0.00365000       0.00365000       0.00365000       0.00365000       0.00365000       0.00365000       0.00365000       0.00365000
END period  1

