# File generated by Flopy version 3.9.5 on 01/10/2026 at 12:05:41.
BEGIN options
  LENGTH_UNITS  feet
END options

BEGIN dimensions
  NLAY  5
  NROW  40
  NCOL  25
END dimensions

BEGIN griddata
  delr
    OPEN/CLOSE  'external/sv.dis_delr.txt'  FACTOR  1.0
  delc
    OPEN/CLOSE  'external/sv.dis_delc.txt'  FACTOR  1.0
  top
    OPEN/CLOSE  'external/sv.dis_top.txt'  FACTOR  1.0
  botm  LAYERED
    OPEN/CLOSE  'external/sv.dis_botm_layer1.txt'  FACTOR  1.0
    OPEN/CLOSE  'external/sv.dis_botm_layer2.txt'  FACTOR  1.0
    OPEN/CLOSE  'external/sv.dis_botm_layer3.txt'  FACTOR  1.0
    OPEN/CLOSE  'external/sv.dis_botm_layer4.txt'  FACTOR  1.0
    OPEN/CLOSE  'external/sv.dis_botm_layer5.txt'  FACTOR  1.0
  idomain  LAYERED
    OPEN/CLOSE  'external/sv.dis_idomain_layer1.txt'  FACTOR  1
    OPEN/CLOSE  'external/sv.dis_idomain_layer2.txt'  FACTOR  1
    OPEN/CLOSE  'external/sv.dis_idomain_layer3.txt'  FACTOR  1
    OPEN/CLOSE  'external/sv.dis_idomain_layer4.txt'  FACTOR  1
    OPEN/CLOSE  'external/sv.dis_idomain_layer5.txt'  FACTOR  1
END griddata

