# File generated by Flopy version 3.9.5 on 01/04/2026 at 12:55:40.
BEGIN options
END options

BEGIN griddata
  strt  LAYERED
    INTERNAL  FACTOR  1.0
          12.70173869      12.71761577      12.73092078      12.74461241      12.76056306      12.78116197      12.80408993      12.82795671      12.85334240      12.88277249      12.90827115      12.90277611      12.81170836      12.86391184      12.91875840      12.97158171      13.02455957      13.07700694      13.13112572      13.18346857      13.23055580      13.27576315      13.32846930      13.38110419      13.41564483
          12.70929257      12.72039990      12.73718996      12.75726691      12.77789304      12.79865055      12.81677414      12.83571204      12.86085497      12.89387014      12.92865452      12.95486039      12.96464696      13.00660786      13.05416561      13.10198534      13.14871027      13.18887587      13.21582183      13.18161999      13.22706312      13.27242561      13.32117205      13.37264791      13.40730776
          12.70758784      12.72414128      12.75931990      12.79806403      12.82657782      12.84592652      12.85269987      12.85539145      12.87074893      12.90388476      12.94667256      12.99142846      13.03323990      13.07933895      13.12646450      13.17355712      13.21948945      13.26074165      13.29573231      13.31601260      13.35159839      13.39127976      13.42557898      13.44093693      13.38206527
          12.69943755      12.73438701      12.81171833      13.55964129      13.55964129      13.55964129      13.55964129      12.88988380      12.87994524      12.90721784      12.95730209      13.01064051      13.06307075      13.11520654      13.16364979      13.21259936      13.26107591      13.30711608      13.34735881      13.38158830      13.41748960      13.44455554      13.45285103      13.42998420      13.33692745
          12.68835288      12.73978694      13.55964129      13.55964129      13.55964129      13.55964129      13.55964129      12.90784498      12.88375243      12.90369432      12.95372054      13.01343742      13.07032761      13.12572895      13.18013268      13.23009859      13.28047486      13.32813362      13.36914174      13.40490971      13.43509440      13.44909674      13.43229250      13.37563759      13.29168659
          12.67071316      12.73347350      13.55964129      13.55964129      13.55964129      13.55964129      13.55964129      12.90912037      12.87901738      12.89243057      12.93933076      12.99764348      13.05676488      13.11686865      13.17563049      13.22816570      13.27602683      13.31998359      13.36087014      13.39555851      13.41892370      13.41945700      13.37312569      13.23801991      13.24137217
          12.62785004      12.69676078      13.55964129      13.55964129      13.55964129      13.55964129      13.55964129      12.89873855      12.86406771      12.87268058      12.91443600      12.96982699      13.02764548      13.08645853      13.14815350      13.20144092      13.24591601      13.28440784      13.32191072      13.35163108      13.36643682      13.35778360      13.30415795      13.17628231      13.18181084
          12.56491856      12.63238740      13.55964129      13.55964129      13.55964129      13.55964129      13.55964129      12.88469016      12.84207456      12.84195486      12.87750608      12.93019696      12.98553843      13.04005681      13.09702341      13.14670437      13.18958880      13.22282392      13.25131827      13.27173017      13.27492408      13.26318606      13.21177598      13.09702888      13.10207191
          12.49228584      12.55400301      13.55964129      13.55964129      13.55964129      13.55964129      13.55964129      12.88410775      12.81776203      12.80475359      12.83180049      12.87780884      12.92805071      12.97968831      13.03138172      13.07445036      13.10870359      13.13326220      13.15277424      13.16228498      13.15714297      13.13554068      13.08112094      13.00060986      13.00822822
          12.39677699      12.45406511      13.55964129      13.55964129      13.55964129      13.55964129      13.55964129      13.55964129      12.79434610      12.76200844      12.77682962      12.81539990      12.85825511      12.90080458      12.94072782      12.97618822      12.99910830      13.00713212      13.02067860      13.02739389      13.01467417      12.96513414      12.87479406      12.89239921      12.90846695
          12.26618404      12.31183669      12.41832187      13.55964129      13.55964129      13.55964129      13.55964129      13.55964129      12.78183036      12.70964616      12.70631744      12.73704787      12.77277798      12.80115144      12.82380752      12.83893930      12.83647254      12.81502205      12.82891903      12.84698676      12.84053168      12.76181188      12.77286210      12.78546967      12.79681047
          12.10435896      12.15042389      12.25350009      13.55964129      13.55964129      13.55964129      13.55964129      13.55964129      13.55964129      12.63279014      12.61653704      12.63532396      12.66022117      12.67132252      12.66974031      12.66527338      12.62644196      12.53432391      12.57282763      12.61215192      12.64030115      12.66037636      12.67264012      12.68103755      12.68522700
          11.89140746      11.94900879      12.05650300      12.20019969      13.55964129      13.55964129      13.55964129      13.55964129      13.55964129      12.52783870      12.49747330      12.49955585      12.50462700      12.48826447      12.44986562      12.44756239      12.38083725      12.42912005      12.47116392      12.50861621      12.53607438      12.55709164      12.57336981      12.58323234      12.58824670
          11.57499780      11.67733015      11.81539121      11.97492016      13.55964129      13.55964129      13.55964129      13.55964129      13.55964129      12.37363198      12.31703678      12.30396987      12.29496093      12.24765134      12.10309862      12.16370270      12.24095199      12.30634103      12.35512846      12.39805707      12.43326483      12.45712920      12.47356775      12.48367140      12.48913106
          11.03396573      11.29759921      11.49449161      11.67138554      13.55964129      13.55964129      13.55964129      13.55964129      13.55964129      12.13395481      12.05033935      12.02298738      12.00790114      12.00244682      11.94326320      12.01136262      12.08597206      12.15988368      12.22169976      12.27676995      12.32095392      12.35165393      12.36990745      12.37958411      12.38446908
          10.74863464      10.77323419      11.05306354      11.20345015      11.32730940      13.55964129      13.55964129      13.55964129      13.55964129      11.77019056      11.67809475      11.60279847      11.49217492      11.62695436      11.75254556      11.85168117      11.93277521      12.00273205      12.07093233      12.13525042      12.18995049      12.23057426      12.25803006      12.27155692      12.27776508
          10.39908087      10.40280478      10.42255685      10.46097977      10.52204866      10.86084363      11.01242128      11.02606023      11.03448348      11.11502935      11.11544588      11.01439366      11.17331758      11.34340274      11.57226254      11.73995791      11.83558496      11.83537915      11.90527280      11.97036278      12.03237341      12.08656138      12.12338228      12.14477288      12.15316967
           9.97357856       9.96943789       9.96707093      10.00085446      10.04216195      10.06159849      10.05627250      10.06010443      10.11818063      10.24442192      10.42649675      10.62903931      10.84316357      11.02976230      11.21381428      11.51551524      11.66503531      11.72252850      11.71211098      11.78103194      11.84412229      11.90858299      11.95982230      11.99616067      12.01005980
           9.50469488       9.49035690       9.46949600       9.47271554       9.47048559       9.46717347       9.46307581       9.47314100       9.54224522       9.69405235       9.92873647      10.15084631      10.38021501      10.70874525      10.96765654      11.21816739      11.42117555      11.52479661      11.56294989      11.56167133      11.64010873      11.71218970      11.77784103      11.83195210      11.86003542
           9.04785685       9.00424231       8.97373846       8.94957761       8.91358065       8.87912268       8.84980897       8.80124764       8.84326153       9.03057767       9.30114844       9.58709507       9.80345362      10.07267090      10.36134419      10.62541837      11.08330508      11.25205653      11.32031497      11.36407652      11.41722516      11.51144135      11.59106972      11.65495881      11.69574253
           8.56029356       8.49983855       8.46015772       8.42325398       8.36027938       8.23598004       8.04962570       7.90393751       7.88339303       8.15428667       8.53599089       8.93250407       9.23153233       9.52300018      10.04025289      10.39215708      10.73658271      10.91313889      10.98964491      11.02638099      11.17020966      11.29458185      11.38960761      11.46026604      11.50696475
           7.99047549       7.94128803       7.87206441       7.77545151       7.63041307       7.35311586       6.95588476       6.58877070       6.36960414       6.88620241       7.52341431       8.08896624       8.53209318       9.08412236       9.56456208       9.92970553      10.27026389      10.46859326      10.55467846      10.75251094      10.91524738      11.05257459      11.14809930      11.21441741      11.25182225
           7.40139284       7.35730852       7.23755513       7.02531383       6.72218027       6.27757837       5.68069363       4.85588178       1.89629943       4.93956717       6.14776977       7.06802833       7.69945219       8.21067043       8.92901630       9.39488130       9.71488767       9.90334207      10.20944719      10.45460776      10.63933060      10.77552622      10.86194468      10.91238143      10.92930538
           6.88100301       6.80343201       6.62675666       6.32384000       5.90493625       5.37537798       4.66651228       3.75757377       1.55809629       3.64794607       4.87596359       6.00819876       6.83356002       7.49760672       8.11256392       8.83926159       9.10166347       9.49046706       9.83849545      10.10713319      10.31105903      10.45174998      10.53118455      10.57443066      10.58719281
           6.43273718       6.30380895       6.07990934       5.75173070       5.32028209       4.76445598       4.01322609       3.12522819       1.53839907       3.00587455       4.07824702       5.18177484       6.08081782       6.79974258       7.49231959       8.28836837       8.74963184       9.02920950       9.38025651       9.65067565       9.83298598      10.01508454      10.13851131      10.19741589      10.21941296
           6.01000852       5.84841824       5.61519010       5.29842275       4.88011127       4.31455688       3.56475920       2.73238272       1.47964217       2.66591706       3.60328629       4.56976174       5.42283966       6.17046811       6.88804621       7.52069944       8.03864216       8.47762439       8.82290499       9.10062202       9.28384744       9.47365756       9.66379090       9.76490583       9.80049517
           5.62446758       5.45938444       5.24073807       4.93115120       4.51898551       3.93481887       3.21874079       2.46327220       1.32555198       2.44934270       3.31423564       4.17085287       4.94724904       5.67279668       6.34809635       7.00026291       7.54764087       7.98444784       8.33369827       8.61231826       8.83537058       9.01769096       9.20000107       9.31880607       9.37107884
           5.21785447       5.08851003       4.88985747       4.59519135       4.18998211       3.61019532       2.90853874       2.19952633       1.15302458       2.25053445       3.08692987       3.90134098       4.61644043       5.29556028       5.94898672       6.55928577       7.12524512       7.56747225       7.94555963       8.25611781       8.47344736       8.65905893       8.82138104       8.93665177       8.99747209
           4.76857769       4.69917024       4.52865428       4.25034273       3.86347858       3.29425193       2.59233038       1.93569580       1.01223435       2.06176174       2.86343922       3.66551053       4.39605049       5.04210670       5.66806647       6.26701448       6.81272813       7.25314261       7.60345868       7.92644802       8.15795645       8.34539470       8.50668013       8.63054155       8.68328012
           4.36919033       4.32571962       4.17863016       3.90204139       3.51712582       2.97963518       2.32445267       1.71128251       0.87364105       1.91806875       2.67647589       3.42979945       4.17162890       4.84834495       5.46205510       6.06745373       6.61743115       7.04726681       7.37585625       7.66479290       7.89844353       8.07157355       8.22829501       8.35454949       8.42101227
           4.04092787       3.99145483       3.85215798       3.57524096       3.19369477       2.70261338       2.10168150       1.52569721       0.74755415       1.78562401       2.52927270       3.24452925       3.95068821       4.66040692       5.31015543       5.90783043       6.45774487       6.88086310       7.19963831       7.47121113       7.69780375       7.86974628       8.01281971       8.12409302       8.19587662
           3.75154005       3.68953621       3.54781002       3.27730766       2.90422590       2.44742668       1.89712512       1.36273392       0.63050125       1.63742134       2.37154266       3.07448917       3.79714951       4.50467970       5.17213395       5.79413390       6.32130202       6.72193101       7.03382559       7.30647024       7.53058502       7.70315944       7.83864706       7.94423692       8.00518367
           3.50499545       3.43593590       3.27171043       2.99316280       2.66179547       2.23439457       1.72030778       1.21759433       0.54824709       1.48297182       2.18519972       2.91974101       3.69701401       4.42025574       5.08130376       5.68697599       6.19003194       6.58187358       6.88969614       7.15692568       7.38305307       7.55898776       7.69217117       7.79240845       7.84810632
           3.31566118       3.23810249       3.06191740       2.79241388       2.46306960       2.05281352       1.57833892       1.11128161       0.45686362       1.34288491       1.99362049       2.75166929       3.60025255       4.37126603       5.03641931       5.61247603       6.10254124       6.48178615       6.77408689       7.03631443       7.26127472       7.43881888       7.56933861       7.66407063       7.71875607
           3.14448232       3.06178111       2.87713220       2.61847746       2.29114423       1.90761026       1.47214552       1.02992355       0.39964212       1.22349482       1.84048598       2.57851293       3.45524055       4.29104514       4.98844251       5.56346948       6.03870452       6.40348471       6.68706906       6.93895555       7.15295660       7.33219496       7.46481738       7.55823891       7.60855819
           3.00132322       2.90935424       2.72182736       2.46049349       2.15161316       1.80726774       1.40551576       0.97009318       0.30240280       1.15408692       1.76941103       2.45836045       3.26554039       4.14748799       4.93083152       5.52198686       5.98994403       6.35393435       6.63203538       6.86672117       7.06264118       7.23619554       7.37411686       7.46978237       7.52159155
           2.88805319       2.78892653       2.59022376       2.32419839       2.05520870       1.75655515       1.37029838       0.91004229       0.18848353       1.08805861       1.73069260       2.43058710       3.18268277       4.00988536       4.81417918       5.44153779       5.93368059       6.31723738       6.59625444       6.82137379       7.00763725       7.16639080       7.30079840       7.39882486       7.45144584
           2.77874616       2.68188192       2.48459093       2.23888719       1.99118403       1.70740158       1.32973596       0.85677561       0.08243204       1.03854071       1.72938191       2.46739433       3.17223993       3.90948424       4.65629024       5.30327931       5.84621628       6.26518964       6.56491873       6.79165269       6.97756909       7.13001526       7.25058787       7.34494480       7.39802470
           2.67812632       2.59210540       2.41559031       2.18359955       1.94654610       1.66614141       1.29173120       0.82473706      -0.01608471       1.01805203       1.73650981       2.49461385       3.20225909       3.86579990       4.52707228       5.16239318       5.75276823       6.22030887       6.54174663       6.77546718       6.95710409       7.10479772       7.22345286       7.31218241       7.36190474
           2.62748222       2.54753403       2.38250434       2.16563590       1.92629855       1.64025994       1.26828465       0.79821772      -0.04822354       0.99520216       1.74361929       2.48878823       3.18990682       3.85197458       4.48417874       5.10502177       5.70350949       6.19571457       6.53340723       6.76801821       6.94571028       7.09124399       7.21148975       7.29623356       7.34319655
    INTERNAL  FACTOR  1.0
          12.70167731      12.71752507      12.73084124      12.74454595      12.76049554      12.78108588      12.80401938      12.82789370      12.85326528      12.88268241      12.90817457      12.90265700      12.81056503      12.86310491      12.91797402      12.97084876      13.02383661      13.07635417      13.13052551      13.18310109      13.23022225      13.27535068      13.32783023      13.38035885      13.41478406
          12.70919178      12.72031876      12.73712154      12.75720418      12.77782645      12.79858280      12.81671280      12.83564718      12.86077690      12.89378062      12.92853531      12.95471541      12.96449925      13.00647150      13.05403851      13.10185786      13.14858798      13.18875599      13.21568030      13.18064854      13.22637293      13.27169506      13.32028460      13.37156095      13.40627511
          12.70747104      12.72405698      12.75924479      12.79817521      12.82670568      12.84605417      12.85278245      12.85532376      12.87066890      12.90378513      12.94654803      12.99126999      13.03308019      13.07918390      13.12632470      13.17341191      13.21934789      13.26060793      13.29557226      13.31583493      13.35140741      13.39106790      13.42532340      13.44060218      13.38064592
          12.69929867      12.73427696      12.81198063      13.02652412      13.08242570      13.08495655      13.03909210      12.88992909      12.87986694      12.90708663      12.95713944      13.01048182      13.06291034      13.11505279      13.16349468      13.21241798      13.26089295      13.30691817      13.34717029      13.38137951      13.41725244      13.44433924      13.45261498      13.42972941      13.33579796
          12.68824171      12.73990723      13.01542259      13.13308418      13.17548375      13.16616512      13.09920332      12.90792531      12.88366222      12.90356424      12.95353837      13.01327111      13.07017137      13.12555771      13.17993329      13.22988867      13.28023302      13.32789434      13.36890773      13.40469184      13.43486027      13.44885006      13.43206405      13.37541072      13.29087107
          12.67060696      12.73366218      13.05220886      13.17016279      13.20718863      13.19209506      13.11564820      12.90920271      12.87892986      12.89230830      12.93918431      12.99748119      13.05658507      13.11666490      13.17538717      13.22792347      13.27579685      13.31971531      13.36062570      13.39528846      13.41861697      13.41911764      13.37283482      13.23675672      13.24092404
          12.62771831      12.69694832      13.05602837      13.17829465      13.21234805      13.19429892      13.11578634      12.89881341      12.86397392      12.87257131      12.91430058      12.96966117      13.02745624      13.08621342      13.14788866      13.20118206      13.24567331      13.28414639      13.32159684      13.35127452      13.36605201      13.35742087      13.30384863      13.17527850      13.18137096
          12.56475904      12.63256437      13.02894706      13.16418933      13.20103406      13.18180959      13.10572618      12.88473878      12.84196678      12.84182350      12.87734173      12.93000224      12.98532111      13.03982201      13.09676126      13.14646071      13.18932895      13.22258770      13.25101957      13.27136016      13.27459003      13.26283191      13.21148545      13.09609861      13.10161894
          12.49212243      12.55418695      12.95693964      13.11504449      13.16694998      13.16148219      13.09736124      12.88422456      12.81762904      12.80462701      12.83164209      12.87760916      12.92782057      12.97945139      13.03114297      13.07423109      13.10846516      13.13301481      13.15251251      13.16200916      13.15690272      13.13525306      13.08083680      12.99978215      13.00782138
          12.39656742      12.45416751      12.82548037      13.02928271      13.10955513      13.12844618      13.09471725      12.99422250      12.79437171      12.76186209      12.77664026      12.81518692      12.85804227      12.90055828      12.94047607      12.97594141      12.99884936      13.00689818      13.02042601      13.02713819      13.01446818      12.96492483      12.87375773      12.89190398      12.90805735
          12.26593008      12.31155445      12.41880722      12.85657552      13.00791414      13.06749656      13.07089021      13.01148007      12.78191153      12.70947724      12.70608204      12.73678274      12.77254469      12.80091605      12.82358505      12.83869910      12.83619277      12.81480094      12.82870359      12.84678362      12.84034245      12.76080920      12.77243612      12.78503651      12.79636650
          12.10410371      12.15017758      12.25357506      12.65947107      12.88055405      12.99305618      13.04053164      13.03064218      12.91237643      12.63278987      12.61628845      12.63503617      12.65996365      12.67107632      12.66950271      12.66504172      12.62621818      12.53313231      12.57198248      12.61128926      12.63953407      12.65991185      12.67226900      12.68069807      12.68488514
          11.89115704      11.94873632      12.05618040      12.20071045      12.70835803      12.90395936      12.97637665      12.99068055      12.89734823      12.52786329      12.49718194      12.49923581      12.50432016      12.48796992      12.44963459      12.44734155      12.37952456      12.42863419      12.47065960      12.50809528      12.53568018      12.55673624      12.57304475      12.58292502      12.58795706
          11.57472620      11.67706277      11.81504732      11.97503171      12.52474272      12.77622921      12.88721046      12.90821622      12.80900112      12.37362872      12.31658938      12.30354601      12.29459046      12.24737275      12.10151969      12.16267110      12.24020808      12.30580019      12.35462918      12.39761108      12.43289447      12.45682416      12.47326541      12.48338589      12.48884004
          11.03189919      11.29730208      11.49414405      11.67150696      12.20092266      12.55032818      12.71036017      12.73818756      12.62809203      12.13390700      12.04985632      12.02252913      12.00746640      12.00213041      11.94243121      12.01082952      12.08537745      12.15932905      12.22118125      12.27630101      12.32055267      12.35130913      12.36963664      12.37932273      12.38420737
          10.74778641      10.77107387      11.05268743      11.20304770      11.32814105      12.05567375      12.30511743      12.32268395      12.23420299      11.77008593      11.67759633      11.60230728      11.48960288      11.62562321      11.75174141      11.85082618      11.93198231      12.00217999      12.07042341      12.13476613      12.18954314      12.23022169      12.25773745      12.27129595      12.27750151
          10.39811091      10.40170289      10.42060461      10.45889528      10.51896405      10.86123516      11.01275344      11.02648262      11.03485295      11.11439713      11.11489373      11.01203936      11.17220552      11.34215653      11.57194521      11.73962216      11.83530889      11.83445664      11.90473172      11.96981023      12.03188906      12.08614062      12.12299932      12.14446548      12.15287512
           9.97247202       9.96832244       9.96594346       9.99977794      10.04070780      10.05875493      10.05303428      10.05741468      10.11577809      10.24215817      10.42467548      10.62770668      10.84192326      11.02860076      11.21192399      11.51513630      11.66469190      11.72225733      11.71103189      11.78048553      11.84364991      11.90809790      11.95942514      11.99583569      12.00977151
           9.50356953       9.48915392       9.46835095       9.47160076       9.46911759       9.46546546       9.46143438       9.47175195       9.54080351       9.69242909       9.92676130      10.14902034      10.37792394      10.70820843      10.96705513      11.21765549      11.42079198      11.52447284      11.56264905      11.56071174      11.63960701      11.71172809      11.77744380      11.83158386      11.85972324
           9.04675169       9.00308421       8.97268602       8.94851807       8.91234969       8.87745903       8.84781061       8.79953875       8.84148529       9.02863573       9.29877484       9.58520157       9.80176620      10.07082188      10.35885079      10.62219747      11.08283102      11.25171818      11.32003311      11.36383826      11.41657204      11.51098112      11.59066391      11.65455335      11.69535342
           8.55876432       8.49860111       8.45893440       8.42200431       8.35884978       8.23399956       8.04690889       7.90194301       7.88144457       8.15176220       8.53295909       8.92932057       9.22961469       9.52045018      10.03945474      10.39151852      10.73608246      10.91273595      10.98936373      11.02533616      11.16966319      11.29406055      11.38911620      11.45976751      11.50647575
           7.98871645       7.94000427       7.87076469       7.77377114       7.62819735       7.35044725       6.95317141       6.58630359       6.36739979       6.88287321       7.51934706       8.08548162       8.52909922       9.08329579       9.56377210       9.92916192      10.26962643      10.46818262      10.55338727      10.75188405      10.91471027      11.05199869      11.14749131      11.21376619      11.25103687
           7.39966116       7.35586937       7.23616999       7.02376967       6.71988951       6.27489196       5.67807295       4.85434615       2.03128192       4.93610811       6.14278370       7.06402014       7.69674130       8.20744062       8.92833132       9.39440618       9.71432960       9.90169001      10.20862170      10.45382420      10.63865310      10.77471844      10.86119461      10.91161818      10.92850735
           6.87956233       6.80202804       6.62541218       6.32256122       5.90345676       5.37373809       4.66456859       3.75635241       1.63129935       3.64600069       4.87284126       6.00522942       6.83137898       7.49517929       8.10962252       8.83870872       9.09937170       9.48935770       9.83739988      10.10606163      10.31003654      10.45077497      10.53031739      10.57353768      10.58637842
           6.43117856       6.30242272       6.07849204       5.75055002       5.31916590       4.76322832       4.01195191       3.12433914       1.58317130       3.00469059       4.07609245       5.17919315       6.07884425       6.79765748       7.48955648       8.28757204       8.74885867       9.02764854       9.37855897       9.64900472       9.83142924      10.01351150      10.13751447      10.19640299      10.21853016
           6.00833453       5.84710926       5.61399380       5.29728972       4.87913742       4.31342235       3.56361182       2.73167005       1.51356859       2.66507557       3.60172483       4.56799411       5.42125024       6.16834025       6.88551187       7.51824833       8.03622347       8.47592563       8.82090854       9.09897349       9.28277234       9.47248797       9.66271914       9.76386217       9.79951485
           5.62216171       5.45811039       5.23957414       4.93000809       4.51786715       3.93367114       3.21771386       2.46258941       1.35773545       2.44850802       3.31289005       4.16941561       4.94571234       5.67085440       6.34603933       6.99791443       7.54578493       7.98281500       8.33223052       8.61124435       8.83451593       9.01674668       9.19894093       9.31783779       9.37034443
           5.21440700       5.08682566       4.88843485       4.59384007       4.18841564       3.60874942       2.90731671       2.19877981       1.18372980       2.24965822       3.08559909       3.90006186       4.61511899       5.29388419       5.94725732       6.55738891       7.12341582       7.56608024       7.94417039       8.25523491       8.47269515       8.65832652       8.82051134       8.93587654       8.99680350
           4.76561810       4.69717714       4.52690809       4.24887229       3.86168400       3.29205284       2.59085840       1.93484219       1.03946929       2.06090651       2.86215360       3.66418772       4.39479005       5.04083909       5.66661966       6.26562898       6.81146277       7.25214080       7.60252280       7.92553807       8.15726375       8.34460513       8.50596068       8.62988779       8.68273416