# File generated by Flopy version 3.9.5 on 12/31/2025 at 17:53:11.
BEGIN options
  PRINT_INPUT
END options

BEGIN continuous  FILEOUT  sv.lake.obs.csv
  Lake-N  HEAD  1 4 4
  Lake-S  HEAD  1 16 9
END continuous  FILEOUT  sv.lake.obs.csv

