# File generated by Flopy version 3.9.5 on 12/31/2025 at 11:28:36.
BEGIN options
END options

BEGIN dimensions
  MAXMVR  1
  MAXPACKAGES  2
END dimensions

BEGIN packages
  riv-1
  dewater
END packages

BEGIN period  121
  dewater  1  riv-1  1  factor       1.00000000
END period  121

