# File generated by Flopy version 3.9.5 on 01/07/2026 at 16:09:15.
BEGIN options
  BUDGET  FILEOUT  sv.cbc
  BUDGETCSV  FILEOUT  sv-budget.csv
  HEAD  FILEOUT  sv.hds
END options

BEGIN period  1
  SAVE  HEAD  ALL
  SAVE  BUDGET  ALL
END period  1

