# File generated by Flopy version 3.9.5 on 01/06/2026 at 17:12:55.
BEGIN options
END options

BEGIN dimensions
  MAXBOUND  1
END dimensions

BEGIN period  122
    OPEN/CLOSE  'external/sv.prediction.well_stress_period_data_122.txt'
END period  122

