BEGIN options
  BOUNDNAMES
  PRINT_FLOWS
  OBS6  FILEIN  sv.riv.obs
END options

BEGIN dimensions
  MAXBOUND  18
END dimensions

BEGIN period  1
    OPEN/CLOSE  'external/sv.riv_stress_period_data_1.txt'
END period  1

