# File generated by Flopy version 3.9.5 on 01/07/2026 at 10:29:30.
BEGIN options
  BOUNDNAMES
  PRINT_FLOWS
  OBS6  FILEIN  sv.riv.obs
END options

BEGIN dimensions
  MAXBOUND  18
END dimensions

BEGIN period  1
    OPEN/CLOSE  'external/sv.riv_stress_period_data_1.txt'
END period  1

