# File generated by Flopy version 3.9.5 on 01/10/2026 at 12:05:45.
BEGIN options
END options

BEGIN continuous  FILEOUT  sv.riv.obs.csv
    OPEN/CLOSE  'external/sv.riv.obs_continuous_sv.riv.obs.csv.txt'
END continuous  FILEOUT  sv.riv.obs.csv

