# File generated by Flopy version 3.9.5 on 01/04/2026 at 12:55:40.
BEGIN options
  BOUNDNAMES
  TS6  FILEIN  sv.rch.ts
END options

BEGIN dimensions
  MAXBOUND  1000
END dimensions

BEGIN period  1
  1 1 1 land land
  1 1 2 land land
  1 1 3 land land
  1 1 4 land land
  1 1 5 land land
  1 1 6 land land
  1 1 7 land land
  1 1 8 land land
  1 1 9 land land
  1 1 10 land land
  1 1 11 land land
  1 1 12 land land
  1 1 13 land land
  1 1 14 land land
  1 1 15 land land
  1 1 16 land land
  1 1 17 land land
  1 1 18 land land
  1 1 19 land land
  1 1 20 land land
  1 1 21 land land
  1 1 22 land land
  1 1 23 land land
  1 1 24 land land
  1 1 25 land land
  1 2 1 land land
  1 2 2 land land
  1 2 3 land land
  1 2 4 land land
  1 2 5 land land
  1 2 6 land land
  1 2 7 land land
  1 2 8 land land
  1 2 9 land land
  1 2 10 land land
  1 2 11 land land
  1 2 12 land land
  1 2 13 land land
  1 2 14 land land
  1 2 15 land land
  1 2 16 land land
  1 2 17 land land
  1 2 18 land land
  1 2 19 land land
  1 2 20 land land
  1 2 21 land land
  1 2 22 land land
  1 2 23 land land
  1 2 24 land land
  1 2 25 land land
  1 3 1 land land
  1 3 2 land land
  1 3 3 land land
  1 3 4 land land
  1 3 5 land land
  1 3 6 land land
  1 3 7 land land
  1 3 8 land land
  1 3 9 land land
  1 3 10 land land
  1 3 11 land land
  1 3 12 land land
  1 3 13 land land
  1 3 14 land land
  1 3 15 land land
  1 3 16 land land
  1 3 17 land land
  1 3 18 land land
  1 3 19 land land
  1 3 20 land land
  1 3 21 land land
  1 3 22 land land
  1 3 23 land land
  1 3 24 land land
  1 3 25 land land
  1 4 1 land land
  1 4 2 land land
  1 4 3 land land
  1 4 4 rain rain
  1 4 5 rain rain
  1 4 6 rain rain
  1 4 7 rain rain
  1 4 8 land land
  1 4 9 land land
  1 4 10 land land
  1 4 11 land land
  1 4 12 land land
  1 4 13 land land
  1 4 14 land land
  1 4 15 land land
  1 4 16 land land
  1 4 17 land land
  1 4 18 land land
  1 4 19 land land
  1 4 20 land land
  1 4 21 land land
  1 4 22 land land
  1 4 23 land land
  1 4 24 land land
  1 4 25 land land
  1 5 1 land land
  1 5 2 land land
  1 5 3 rain rain
  1 5 4 rain rain
  1 5 5 rain rain
  1 5 6 rain rain
  1 5 7 rain rain
  1 5 8 land land
  1 5 9 land land
  1 5 10 land land
  1 5 11 land land
  1 5 12 land land
  1 5 13 land land
  1 5 14 land land
  1 5 15 land land
  1 5 16 land land
  1 5 17 land land
  1 5 18 land land
  1 5 19 land land
  1 5 20 land land
  1 5 21 land land
  1 5 22 land land
  1 5 23 land land
  1 5 24 land land
  1 5 25 land land
  1 6 1 land land
  1 6 2 land land
  1 6 3 rain rain
  1 6 4 rain rain
  1 6 5 rain rain
  1 6 6 rain rain
  1 6 7 rain rain
  1 6 8 land land
  1 6 9 land land
  1 6 10 land land
  1 6 11 land land
  1 6 12 land land
  1 6 13 land land
  1 6 14 land land
  1 6 15 land land
  1 6 16 land land
  1 6 17 land land
  1 6 18 land land
  1 6 19 land land
  1 6 20 land land
  1 6 21 land land
  1 6 22 land land
  1 6 23 land land
  1 6 24 land land
  1 6 25 land land
  1 7 1 land land
  1 7 2 land land
  1 7 3 rain rain
  1 7 4 rain rain
  1 7 5 rain rain
  1 7 6 rain rain
  1 7 7 rain rain
  1 7 8 land land
  1 7 9 land land
  1 7 10 land land
  1 7 11 land land
  1 7 12 land land
  1 7 13 land land
  1 7 14 land land
  1 7 15 land land
  1 7 16 land land
  1 7 17 land land
  1 7 18 land land
  1 7 19 land land
  1 7 20 land land
  1 7 21 land land
  1 7 22 land land
  1 7 23 land land
  1 7 24 land land
  1 7 25 land land
  1 8 1 land land
  1 8 2 land land
  1 8 3 rain rain
  1 8 4 rain rain
  1 8 5 rain rain
  1 8 6 rain rain
  1 8 7 rain rain
  1 8 8 land land
  1 8 9 land land
  1 8 10 land land
  1 8 11 land land
  1 8 12 land land
  1 8 13 land land
  1 8 14 land land
  1 8 15 land land
  1 8 16 land land
  1 8 17 land land
  1 8 18 land land
  1 8 19 land land
  1 8 20 land land
  1 8 21 land land
  1 8 22 land land
  1 8 23 land land
  1 8 24 land land
  1 8 25 land land
  1 9 1 land land
  1 9 2 land land
  1 9 3 rain rain
  1 9 4 rain rain
  1 9 5 rain rain
  1 9 6 rain rain
  1 9 7 rain rain
  1 9 8 land land
  1 9 9 land land
  1 9 10 land land
  1 9 11 land land
  1 9 12 land land
  1 9 13 land land
  1 9 14 land land
  1 9 15 land land
  1 9 16 land land
  1 9 17 land land
  1 9 18 land land
  1 9 19 land land
  1 9 20 land land
  1 9 21 land land
  1 9 22 land land
  1 9 23 land land
  1 9 24 land land
  1 9 25 land land
  1 10 1 land land
  1 10 2 land land
  1 10 3 rain rain
  1 10 4 rain rain
  1 10 5 rain rain
  1 10 6 rain rain
  1 10 7 rain rain
  1 10 8 rain rain
  1 10 9 land land
  1 10 10 land land
  1 10 11 land land
  1 10 12 land land
  1 10 13 land land
  1 10 14 land land
  1 10 15 land land
  1 10 16 land land
  1 10 17 land land
  1 10 18 land land
  1 10 19 land land
  1 10 20 land land
  1 10 21 land land
  1 10 22 land land
  1 10 23 land land
  1 10 24 land land
  1 10 25 land land
  1 11 1 land land
  1 11 2 land land
  1 11 3 land land
  1 11 4 rain rain
  1 11 5 rain rain
  1 11 6 rain rain
  1 11 7 rain rain
  1 11 8 rain rain
  1 11 9 land land
  1 11 10 land land
  1 11 11 land land
  1 11 12 land land
  1 11 13 land land
  1 11 14 land land
  1 11 15 land land
  1 11 16 land land
  1 11 17 land land
  1 11 18 land land
  1 11 19 land land
  1 11 20 land land
  1 11 21 land land
  1 11 22 land land
  1 11 23 land land
  1 11 24 land land
  1 11 25 land land
  1 12 1 land land
  1 12 2 land land
  1 12 3 land land
  1 12 4 rain rain
  1 12 5 rain rain
  1 12 6 rain rain
  1 12 7 rain rain
  1 12 8 rain rain
  1 12 9 rain rain
  1 12 10 land land
  1 12 11 land land
  1 12 12 land land
  1 12 13 land land
  1 12 14 land land
  1 12 15 land land
  1 12 16 land land
  1 12 17 land land
  1 12 18 land land
  1 12 19 land land
  1 12 20 land land
  1 12 21 land land
  1 12 22 land land
  1 12 23 land land
  1 12 24 land land
  1 12 25 land land
  1 13 1 land land
  1 13 2 land land
  1 13 3 land land
  1 13 4 land land
  1 13 5 rain rain
  1 13 6 rain rain
  1 13 7 rain rain
  1 13 8 rain rain
  1 13 9 rain rain
  1 13 10 land land
  1 13 11 land land
  1 13 12 land land
  1 13 13 land land
  1 13 14 land land
  1 13 15 land land
  1 13 16 land land
  1 13 17 land land
  1 13 18 land land
  1 13 19 land land
  1 13 20 land land
  1 13 21 land land
  1 13 22 land land
  1 13 23 land land
  1 13 24 land land
  1 13 25 land land
  1 14 1 land land
  1 14 2 land land
  1 14 3 land land
  1 14 4 land land
  1 14 5 rain rain
  1 14 6 rain rain
  1 14 7 rain rain
  1 14 8 rain rain
  1 14 9 rain rain
  1 14 10 land land
  1 14 11 land land
  1 14 12 land land
  1 14 13 land land
  1 14 14 land land
  1 14 15 land land
  1 14 16 land land
  1 14 17 land land
  1 14 18 land land
  1 14 19 land land
  1 14 20 land land
  1 14 21 land land
  1 14 22 land land
  1 14 23 land land
  1 14 24 land land
  1 14 25 land land
  1 15 1 land land
  1 15 2 land land
  1 15 3 land land
  1 15 4 land land
  1 15 5 rain rain
  1 15 6 rain rain
  1 15 7 rain rain
  1 15 8 rain rain
  1 15 9 rain rain
  1 15 10 land land
  1 15 11 land land
  1 15 12 land land
  1 15 13 land land
  1 15 14 land land
  1 15 15 land land
  1 15 16 land land
  1 15 17 land land
  1 15 18 land land
  1 15 19 land land
  1 15 20 land land
  1 15 21 land land
  1 15 22 land land
  1 15 23 land land
  1 15 24 land land
  1 15 25 land land
  1 16 1 land land
  1 16 2 land land
  1 16 3 land land
  1 16 4 land land
  1 16 5 land land
  1 16 6 rain rain
  1 16 7 rain rain
  1 16 8 rain rain
  1 16 9 rain rain
  1 16 10 land land
  1 16 11 land land
  1 16 12 land land
  1 16 13 land land
  1 16 14 land land
  1 16 15 land land
  1 16 16 land land
  1 16 17 land land
  1 16 18 land land
  1 16 19 land land
  1 16 20 land land
  1 16 21 land land
  1 16 22 land land
  1 16 23 land land
  1 16 24 land land
  1 16 25 land land
  1 17 1 land land
  1 17 2 land land
  1 17 3 land land
  1 17 4 land land
  1 17 5 land land
  1 17 6 land land
  1 17 7 land land
  1 17 8 land land
  1 17 9 land land
  1 17 10 land land
  1 17 11 land land
  1 17 12 land land
  1 17 13 land land
  1 17 14 land land
  1 17 15 land land
  1 17 16 land land
  1 17 17 land land
  1 17 18 land land
  1 17 19 land land
  1 17 20 land land
  1 17 21 land land
  1 17 22 land land
  1 17 23 land land
  1 17 24 land land
  1 17 25 land land
  1 18 1 land land
  1 18 2 land land
  1 18 3 land land
  1 18 4 land land
  1 18 5 land land
  1 18 6 land land
  1 18 7 land land
  1 18 8 land land
  1 18 9 land land
  1 18 10 land land
  1 18 11 land land
  1 18 12 land land
  1 18 13 land land
  1 18 14 land land
  1 18 15 land land
  1 18 16 land land
  1 18 17 land land
  1 18 18 land land
  1 18 19 land land
  1 18 20 land land
  1 18 21 land land
  1 18 22 land land
  1 18 23 land land
  1 18 24 land land
  1 18 25 land land
  1 19 1 land land
  1 19 2 land land
  1 19 3 land land
  1 19 4 land land
  1 19 5 land land
  1 19 6 land land
  1 19 7 land land
  1 19 8 land land
  1 19 9 land land
  1 19 10 land land
  1 19 11 land land
  1 19 12 land land
  1 19 13 land land
  1 19 14 land land
  1 19 15 land land
  1 19 16 land land
  1 19 17 land land
  1 19 18 land land
  1 19 19 land land
  1 19 20 land land
  1 19 21 land land
  1 19 22 land land
  1 19 23 land land
  1 19 24 land land
  1 19 25 land land
  1 20 1 land land
  1 20 2 land land
  1 20 3 land land
  1 20 4 land land
  1 20 5 land land
  1 20 6 land land
  1 20 7 land land
  1 20 8 land land
  1 20 9 land land
  1 20 10 land land
  1 20 11 land land
  1 20 12 land land
  1 20 13 land land
  1 20 14 land land
  1 20 15 land land
  1 20 16 land land
  1 20 17 land land
  1 20 18 land land
  1 20 19 land land
  1 20 20 land land
  1 20 21 land land
  1 20 22 land land
  1 20 23 land land
  1 20 24 land land
  1 20 25 land land
  1 21 1 land land
  1 21 2 land land
  1 21 3 land land
  1 21 4 land land
  1 21 5 land land
  1 21 6 land land
  1 21 7 land land
  1 21 8 land land
  1 21 9 land land
  1 21 10 land land
  1 21 11 land land
  1 21 12 land land
  1 21 13 land land
  1 21 14 land land
  1 21 15 land land
  1 21 16 land land
  1 21 17 land land
  1 21 18 land land
  1 21 19 land land
  1 21 20 land land
  1 21 21 land land
  1 21 22 land land
  1 21 23 land land
  1 21 24 land land
  1 21 25 land land
  1 22 1 land land
  1 22 2 land land
  1 22 3 land land
  1 22 4 land land
  1 22 5 land land
  1 22 6 land land
  1 22 7 land land
  1 22 8 land land
  1 22 9 land land
  1 22 10 land land
  1 22 11 land land
  1 22 12 land land
  1 22 13 land land
  1 22 14 land land
  1 22 15 land land
  1 22 16 land land
  1 22 17 land land
  1 22 18 land land
  1 22 19 land land
  1 22 20 land land
  1 22 21 land land
  1 22 22 land land
  1 22 23 land land
  1 22 24 land land
  1 22 25 land land
  1 23 1 land land
  1 23 2 land land
  1 23 3 land land
  1 23 4 land land
  1 23 5 land land
  1 23 6 land land
  1 23 7 land land
  1 23 8 land land
  1 23 9 land land
  1 23 10 land land
  1 23 11 land land
  1 23 12 land land
  1 23 13 land land
  1 23 14 land land
  1 23 15 land land
  1 23 16 land land
  1 23 17 land land
  1 23 18 land land
  1 23 19 land land
  1 23 20 land land
  1 23 21 land land
  1 23 22 land land
  1 23 23 land land
  1 23 24 land land
  1 23 25 land land
  1 24 1 land land
  1 24 2 land land
  1 24 3 land land
  1 24 4 land land
  1 24 5 land land
  1 24 6 land land
  1 24 7 land land
  1 24 8 land land
  1 24 9 land land
  1 24 10 land land
  1 24 11 land land
  1 24 12 land land
  1 24 13 land land
  1 24 14 land land
  1 24 15 land land
  1 24 16 land land
  1 24 17 land land
  1 24 18 land land
  1 24 19 land land
  1 24 20 land land
  1 24 21 land land
  1 24 22 land land
  1 24 23 land land
  1 24 24 land land
  1 24 25 land land
  1 25 1 land land
  1 25 2 land land
  1 25 3 land land
  1 25 4 land land
  1 25 5 land land
  1 25 6 land land
  1 25 7 land land
  1 25 8 land land
  1 25 9 land land
  1 25 10 land land
  1 25 11 land land
  1 25 12 land land
  1 25 13 land land
  1 25 14 land land
  1 25 15 land land
  1 25 16 land land
  1 25 17 land land
  1 25 18 land land
  1 25 19 land land
  1 25 20 land land
  1 25 21 land land
  1 25 22 land land
  1 25 23 land land
  1 25 24 land land
  1 25 25 land land
  1 26 1 land land
  1 26 2 land land
  1 26 3 land land
  1 26 4 land land
  1 26 5 land land
  1 26 6 land land
  1 26 7 land land
  1 26 8 land land
  1 26 9 land land
  1 26 10 land land
  1 26 11 land land
  1 26 12 land land
  1 26 13 land land
  1 26 14 land land
  1 26 15 land land
  1 26 16 land land
  1 26 17 land land
  1 26 18 land land
  1 26 19 land land
  1 26 20 land land
  1 26 21 land land
  1 26 22 land land
  1 26 23 land land
  1 26 24 land land
  1 26 25 land land
  1 27 1 land land
  1 27 2 land land
  1 27 3 land land
  1 27 4 land land
  1 27 5 land land
  1 27 6 land land
  1 27 7 land land
  1 27 8 land land
  1 27 9 land land
  1 27 10 land land
  1 27 11 land land
  1 27 12 land land
  1 27 13 land land
  1 27 14 land land
  1 27 15 land land
  1 27 16 land land
  1 27 17 land land
  1 27 18 land land
  1 27 19 land land
  1 27 20 land land
  1 27 21 land land
  1 27 22 land land
  1 27 23 land land
  1 27 24 land land
  1 27 25 land land
  1 28 1 land land
  1 28 2 land land
  1 28 3 land land
  1 28 4 land land
  1 28 5 land land
  1 28 6 land land
  1 28 7 land land
  1 28 8 land land
  1 28 9 land land
  1 28 10 land land
  1 28 11 land land
  1 28 12 land land
  1 28 13 land land
  1 28 14 land land
  1 28 15 land land
  1 28 16 land land
  1 28 17 land land
  1 28 18 land land
  1 28 19 land land
  1 28 20 land land
  1 28 21 land land
  1 28 22 land land
  1 28 23 land land
  1 28 24 land land
  1 28 25 land land
  1 29 1 land land
  1 29 2 land land
  1 29 3 land land
  1 29 4 land land
  1 29 5 land land
  1 29 6 land land
  1 29 7 land land
  1 29 8 land land
  1 29 9 land land
  1 29 10 land land
  1 29 11 land land
  1 29 12 land land
  1 29 13 land land
  1 29 14 land land
  1 29 15 land land
  1 29 16 land land
  1 29 17 land land
  1 29 18 land land
  1 29 19 land land
  1 29 20 land land
  1 29 21 land land
  1 29 22 land land
  1 29 23 land land
  1 29 24 land land
  1 29 25 land land
  1 30 1 land land
  1 30 2 land land
  1 30 3 land land
  1 30 4 land land
  1 30 5 land land
  1 30 6 land land
  1 30 7 land land
  1 30 8 land land
  1 30 9 land land
  1 30 10 land land
  1 30 11 land land
  1 30 12 land land
  1 30 13 land land
  1 30 14 land land
  1 30 15 land land
  1 30 16 land land
  1 30 17 land land
  1 30 18 land land
  1 30 19 land land
  1 30 20 land land
  1 30 21 land land
  1 30 22 land land
  1 30 23 land land
  1 30 24 land land
  1 30 25 land land
  1 31 1 land land
  1 31 2 land land
  1 31 3 land land
  1 31 4 land land
  1 31 5 land land
  1 31 6 land land
  1 31 7 land land
  1 31 8 land land
  1 31 9 land land
  1 31 10 land land
  1 31 11 land land
  1 31 12 land land
  1 31 13 land land
  1 31 14 land land
  1 31 15 land land
  1 31 16 land land
  1 31 17 land land
  1 31 18 land land
  1 31 19 land land
  1 31 20 land land
  1 31 21 land land
  1 31 22 land land
  1 31 23 land land
  1 31 24 land land
  1 31 25 land land
  1 32 1 land land
  1 32 2 land land
  1 32 3 land land
  1 32 4 land land
  1 32 5 land land
  1 32 6 land land
  1 32 7 land land
  1 32 8 land land
  1 32 9 land land
  1 32 10 land land
  1 32 11 land land
  1 32 12 land land
  1 32 13 land land
  1 32 14 land land
  1 32 15 land land
  1 32 16 land land
  1 32 17 land land
  1 32 18 land land
  1 32 19 land land
  1 32 20 land land
  1 32 21 land land
  1 32 22 land land
  1 32 23 land land
  1 32 24 land land
  1 32 25 land land
  1 33 1 land land
  1 33 2 land land
  1 33 3 land land
  1 33 4 land land
  1 33 5 land land
  1 33 6 land land
  1 33 7 land land
  1 33 8 land land
  1 33 9 land land
  1 33 10 land land
  1 33 11 land land
  1 33 12 land land
  1 33 13 land land
  1 33 14 land land
  1 33 15 land land
  1 33 16 land land
  1 33 17 land land
  1 33 18 land land
  1 33 19 land land
  1 33 20 land land
  1 33 21 land land
  1 33 22 land land
  1 33 23 land land
  1 33 24 land land
  1 33 25 land land
  1 34 1 land land
  1 34 2 land land
  1 34 3 land land
  1 34 4 land land
  1 34 5 land land
  1 34 6 land land
  1 34 7 land land
  1 34 8 land land
  1 34 9 land land
  1 34 10 land land
  1 34 11 land land
  1 34 12 land land
  1 34 13 land land
  1 34 14 land land
  1 34 15 land land
  1 34 16 land land
  1 34 17 land land
  1 34 18 land land
  1 34 19 land land
  1 34 20 land land
  1 34 21 land land
  1 34 22 land land
  1 34 23 land land
  1 34 24 land land
  1 34 25 land land
  1 35 1 land land
  1 35 2 land land
  1 35 3 land land
  1 35 4 land land
  1 35 5 land land
  1 35 6 land land
  1 35 7 land land
  1 35 8 land land
  1 35 9 land land
  1 35 10 land land
  1 35 11 land land
  1 35 12 land land
  1 35 13 land land
  1 35 14 land land
  1 35 15 land land
  1 35 16 land land
  1 35 17 land land
  1 35 18 land land
  1 35 19 land land
  1 35 20 land land
  1 35 21 land land
  1 35 22 land land
  1 35 23 land land
  1 35 24 land land
  1 35 25 land land
  1 36 1 land land
  1 36 2 land land
  1 36 3 land land
  1 36 4 land land
  1 36 5 land land
  1 36 6 land land
  1 36 7 land land
  1 36 8 land land
  1 36 9 land land
  1 36 10 land land
  1 36 11 land land
  1 36 12 land land
  1 36 13 land land
  1 36 14 land land
  1 36 15 land land
  1 36 16 land land
  1 36 17 land land
  1 36 18 land land
  1 36 19 land land
  1 36 20 land land
  1 36 21 land land
  1 36 22 land land
  1 36 23 land land
  1 36 24 land land
  1 36 25 land land
  1 37 1 land land
  1 37 2 land land
  1 37 3 land land
  1 37 4 land land
  1 37 5 land land
  1 37 6 land land
  1 37 7 land land
  1 37 8 land land
  1 37 9 land land
  1 37 10 land land
  1 37 11 land land
  1 37 12 land land
  1 37 13 land land
  1 37 14 land land
  1 37 15 land land
  1 37 16 land land
  1 37 17 land land
  1 37 18 land land
  1 37 19 land land
  1 37 20 land land
  1 37 21 land land
  1 37 22 land land
  1 37 23 land land
  1 37 24 land land
  1 37 25 land land
  1 38 1 land land
  1 38 2 land land
  1 38 3 land land
  1 38 4 land land
  1 38 5 land land
  1 38 6 land land
  1 38 7 land land
  1 38 8 land land
  1 38 9 land land
  1 38 10 land land
  1 38 11 land land
  1 38 12 land land
  1 38 13 land land
  1 38 14 land land
  1 38 15 land land
  1 38 16 land land
  1 38 17 land land
  1 38 18 land land
  1 38 19 land land
  1 38 20 land land
  1 38 21 land land
  1 38 22 land land
  1 38 23 land land
  1 38 24 land land
  1 38 25 land land
  1 39 1 land land
  1 39 2 land land
  1 39 3 land land
  1 39 4 land land
  1 39 5 land land
  1 39 6 land land
  1 39 7 land land
  1 39 8 land land
  1 39 9 land land
  1 39 10 land land
  1 39 11 land land
  1 39 12 land land
  1 39 13 land land
  1 39 14 land land
  1 39 15 land land
  1 39 16 land land
  1 39 17 land land
  1 39 18 land land
  1 39 19 land land
  1 39 20 land land
  1 39 21 land land
  1 39 22 land land
  1 39 23 land land
  1 39 24 land land
  1 39 25 land land
  1 40 1 land land
  1 40 2 land land
  1 40 3 land land
  1 40 4 land land
  1 40 5 land land
  1 40 6 land land
  1 40 7 land land
  1 40 8 land land
  1 40 9 land land
  1 40 10 land land
  1 40 11 land land
  1 40 12 land land
  1 40 13 land land
  1 40 14 land land
  1 40 15 land land
  1 40 16 land land
  1 40 17 land land
  1 40 18 land land
  1 40 19 land land
  1 40 20 land land
  1 40 21 land land
  1 40 22 land land
  1 40 23 land land
  1 40 24 land land
  1 40 25 land land
END period  1

