# File generated by Flopy version 3.9.5 on 01/04/2026 at 12:55:40.
BEGIN options
END options

BEGIN continuous  FILEOUT  sv.riv.obs.csv
  PF  RIV  PF
  RIVFLOW  RIV  RIV
END continuous  FILEOUT  sv.riv.obs.csv

