# File generated by Flopy version 3.9.5 on 01/10/2026 at 11:58:39.
BEGIN options
END options

BEGIN continuous  FILEOUT  sv.riv.obs.csv
    OPEN/CLOSE  'external/sv.riv.obs_continuous_sv.riv.obs.csv.txt'
END continuous  FILEOUT  sv.riv.obs.csv

