# File generated by Flopy version 3.9.5 on 01/08/2026 at 15:48:21.
BEGIN options
END options

BEGIN timing
  TDIS6  sv.tdis
END timing

BEGIN models
  gwf6  sv.nam  sv
END models

BEGIN exchanges
END exchanges

BEGIN solutiongroup  1
  ims6  sv.ims  sv
END solutiongroup  1

