# File generated by Flopy version 3.9.5 on 01/04/2026 at 11:27:16.
BEGIN options
  MOVER
END options

BEGIN dimensions
  MAXBOUND  1
END dimensions

BEGIN period  11
  1 23 20 2.00000000E+00 4.00000000E+06
END period  11

