BEGIN options
END options

BEGIN griddata
  strt  LAYERED
    OPEN/CLOSE  'external/sv.ic_strt_layer1.txt'  FACTOR  1.0
    OPEN/CLOSE  'external/sv.ic_strt_layer2.txt'  FACTOR  1.0
    OPEN/CLOSE  'external/sv.ic_strt_layer3.txt'  FACTOR  1.0
    OPEN/CLOSE  'external/sv.ic_strt_layer4.txt'  FACTOR  1.0
    OPEN/CLOSE  'external/sv.ic_strt_layer5.txt'  FACTOR  1.0
END griddata

