# File generated by Flopy version 3.9.5 on 01/04/2026 at 11:27:16.
BEGIN options
  SAVE_FLOWS
  NEWTON  UNDER_RELAXATION
END options

BEGIN packages
  DIS6  sv.dis  dis
  IC6  sv.ic  ic
  NPF6  sv.npf  npf
  STO6  sv.sto  sto
  RCH6  sv.rch  rch_0
  EVT6  sv.evt  evt_0
  RIV6  sv.riv  riv-1
  WEL6  sv.wel  pwell
  DRN6  sv.drn  dewater
  OC6  sv.oc  oc
  OBS6  sv.gwf.obs  gwf-obs
END packages

