# File generated by Flopy version 3.9.5 on 01/06/2026 at 17:14:05.
BEGIN options
  BUDGET  FILEOUT  sv.cbc
  HEAD  FILEOUT  sv.hds
END options

BEGIN period  1
  SAVE  HEAD  ALL
  SAVE  BUDGET  ALL
END period  1

