# File generated by Flopy version 3.9.5 on 01/07/2026 at 10:19:11.
BEGIN options
  BUDGET  FILEOUT  sv.cbc
  HEAD  FILEOUT  sv.hds
END options

BEGIN period  1
  SAVE  HEAD  ALL
  SAVE  BUDGET  ALL
END period  1

