# File generated by Flopy version 3.9.5 on 01/09/2026 at 11:16:04.
BEGIN options
  BUDGET  FILEOUT  sv.cbc
  BUDGETCSV  FILEOUT  sv-budget.csv
  HEAD  FILEOUT  sv.hds
END options

BEGIN period  1
  SAVE  HEAD  ALL
  SAVE  BUDGET  ALL
END period  1

