BEGIN options
END options

BEGIN continuous  FILEOUT  sv.riv.obs.csv
    OPEN/CLOSE  'external/sv.riv.obs_continuous_sv.riv.obs.csv.txt'
END continuous  FILEOUT  sv.riv.obs.csv

