# File generated by Flopy version 3.9.5 on 01/07/2026 at 17:31:41.
BEGIN options
END options

BEGIN continuous  FILEOUT  sv.riv.obs.csv
    OPEN/CLOSE  'external/sv.riv.obs_continuous_sv.riv.obs.csv.txt'
END continuous  FILEOUT  sv.riv.obs.csv

