# File generated by Flopy version 3.9.5 on 01/10/2026 at 12:04:57.
BEGIN options
END options

BEGIN griddata
  iconvert
    OPEN/CLOSE  'external/sv.sto_iconvert.txt'  FACTOR  1
  ss  LAYERED
    OPEN/CLOSE  'external/sv.sto_ss_layer1.txt'  FACTOR  1.0
    OPEN/CLOSE  'external/sv.sto_ss_layer2.txt'  FACTOR  1.0
    OPEN/CLOSE  'external/sv.sto_ss_layer3.txt'  FACTOR  1.0
    OPEN/CLOSE  'external/sv.sto_ss_layer4.txt'  FACTOR  1.0
    OPEN/CLOSE  'external/sv.sto_ss_layer5.txt'  FACTOR  1.0
  sy  LAYERED
    OPEN/CLOSE  'external/sv.sto_sy_layer1.txt'  FACTOR  1.0
    OPEN/CLOSE  'external/sv.sto_sy_layer2.txt'  FACTOR  1.0
    OPEN/CLOSE  'external/sv.sto_sy_layer3.txt'  FACTOR  1.0
    OPEN/CLOSE  'external/sv.sto_sy_layer4.txt'  FACTOR  1.0
    OPEN/CLOSE  'external/sv.sto_sy_layer5.txt'  FACTOR  1.0
END griddata

BEGIN period  1
  STEADY-STATE
END period  1

BEGIN period  2
  TRANSIENT
END period  2

