# File generated by Flopy version 3.9.5 on 01/04/2026 at 11:27:16.
BEGIN options
  BOUNDNAMES
  TS6  FILEIN  sv.wel.ts
END options

BEGIN dimensions
  MAXBOUND  4
END dimensions

BEGIN period  2
  4 6 15 reilly_4 reilly
  5 6 15 reilly_5 reilly
  4 33 6 vc_4 vc
  5 33 6 vc_5 vc
END period  2

