# File generated by Flopy version 3.9.5 on 12/31/2025 at 10:07:20.
BEGIN options
END options

BEGIN dimensions
  MAXBOUND  1
END dimensions

BEGIN period  4
  1 23 20 2.00000000E+00 4.00000000E+06
END period  4

