# File generated by Flopy version 3.9.5 on 12/31/2025 at 10:07:20.
BEGIN options
END options

BEGIN griddata
  strt  LAYERED
    INTERNAL  FACTOR  1.0
          11.33000000      11.32000000      11.30000000      11.28000000      11.28000000      11.31000000      11.34000000      11.38000000      11.42000000      11.46000000      11.53000000      11.60000000      11.66000000      11.73000000      11.79000000      11.84000000      11.89000000      11.94000000      11.99000000      12.05000000      12.09000000      12.14000000      12.19000000      12.24000000      12.27000000
          11.31000000      11.29000000      11.26000000      11.24000000      11.23000000      11.25000000      11.30000000      11.36000000      11.43000000      11.51000000      11.59000000      11.67000000      11.74000000      11.81000000      11.86000000      11.91000000      11.95000000      11.99000000      12.03000000      12.07000000      12.10000000      12.14000000      12.18000000      12.23000000      12.27000000
          11.28000000      11.24000000      11.18000000      11.13000000      11.12000000      11.13000000      11.20000000      11.30000000      11.41000000      11.52000000      11.61000000      11.71000000      11.79000000      11.85000000      11.91000000      11.96000000      12.01000000      12.05000000      12.09000000      12.13000000      12.17000000      12.20000000      12.22000000      12.23000000      12.24000000
          11.23000000      11.17000000      11.06000000      11.00000000      11.00000000      11.00000000      11.00000000      11.20000000      11.37000000      11.50000000      11.63000000      11.72000000      11.80000000      11.88000000      11.93000000      11.99000000      12.04000000      12.09000000      12.13000000      12.17000000      12.21000000      12.23000000      12.24000000      12.23000000      12.21000000
          11.17000000      11.10000000      11.00000000      11.00000000      11.00000000      11.00000000      11.00000000      11.14000000      11.33000000      11.48000000      11.61000000      11.72000000      11.80000000      11.88000000      11.95000000      12.00000000      12.06000000      12.11000000      12.15000000      12.19000000      12.22000000      12.23000000      12.22000000      12.20000000      12.16000000
          11.13000000      11.07000000      11.00000000      11.00000000      11.00000000      11.00000000      11.00000000      11.13000000      11.31000000      11.46000000      11.59000000      11.70000000      11.79000000      11.87000000      11.94000000      12.00000000      12.05000000      12.10000000      12.14000000      12.18000000      12.20000000      12.20000000      12.17000000      12.12000000      12.10000000
          11.11000000      11.06000000      11.00000000      11.00000000      11.00000000      11.00000000      11.00000000      11.12000000      11.29000000      11.43000000      11.56000000      11.67000000      11.76000000      11.83000000      11.91000000      11.97000000      12.02000000      12.06000000      12.10000000      12.13000000      12.15000000      12.14000000      12.09000000      12.04000000      12.04000000
          11.09000000      11.05000000      11.00000000      11.00000000      11.00000000      11.00000000      11.00000000      11.11000000      11.26000000      11.40000000      11.52000000      11.63000000      11.72000000      11.79000000      11.86000000      11.92000000      11.97000000      12.00000000      12.03000000      12.05000000      12.06000000      12.05000000      12.02000000      11.97000000      11.96000000
          11.06000000      11.03000000      11.00000000      11.00000000      11.00000000      11.00000000      11.00000000      11.06000000      11.22000000      11.35000000      11.47000000      11.58000000      11.66000000      11.74000000      11.80000000      11.85000000      11.89000000      11.92000000      11.94000000      11.94000000      11.94000000      11.94000000      11.91000000      11.87000000      11.87000000
          11.02000000      11.02000000      11.00000000      11.00000000      11.00000000      11.00000000      11.00000000      11.00000000      11.14000000      11.30000000      11.42000000      11.52000000      11.60000000      11.66000000      11.71000000      11.76000000      11.79000000      11.80000000      11.81000000      11.82000000      11.81000000      11.79000000      11.76000000      11.76000000      11.77000000
          10.96000000      10.97000000      10.99000000      11.00000000      11.00000000      11.00000000      11.00000000      11.00000000      11.07000000      11.23000000      11.35000000      11.45000000      11.52000000      11.57000000      11.60000000      11.62000000      11.64000000      11.63000000      11.63000000      11.65000000      11.66000000      11.65000000      11.64000000      11.65000000      11.66000000
          10.86000000      10.88000000      10.94000000      11.00000000      11.00000000      11.00000000      11.00000000      11.00000000      11.00000000      11.16000000      11.28000000      11.36000000      11.42000000      11.45000000      11.47000000      11.47000000      11.47000000      11.45000000      11.46000000      11.50000000      11.52000000      11.53000000      11.54000000      11.54000000      11.55000000
          10.71000000      10.76000000      10.84000000      10.95000000      11.00000000      11.00000000      11.00000000      11.00000000      11.00000000      11.09000000      11.18000000      11.25000000      11.28000000      11.29000000      11.28000000      11.27000000      11.29000000      11.32000000      11.35000000      11.39000000      11.40000000      11.42000000      11.44000000      11.45000000      11.45000000
          10.49000000      10.57000000      10.70000000      10.87000000      11.00000000      11.00000000      11.00000000      11.00000000      11.00000000      11.03000000      11.06000000      11.09000000      11.11000000      11.10000000      11.06000000      11.07000000      11.14000000      11.19000000      11.23000000      11.27000000      11.30000000      11.32000000      11.34000000      11.35000000      11.35000000
          10.16000000      10.31000000      10.47000000      10.71000000      11.00000000      11.00000000      11.00000000      11.00000000      11.00000000      10.92000000      10.86000000      10.86000000      10.88000000      10.89000000      10.88000000      10.92000000      10.98000000      11.05000000      11.10000000      11.15000000      11.19000000      11.22000000      11.23000000      11.24000000      11.25000000
           9.86000000       9.94000000      10.12000000      10.38000000      10.77000000      11.00000000      11.00000000      11.00000000      11.00000000      10.69000000      10.57000000      10.52000000      10.54000000      10.61000000      10.70000000      10.78000000      10.84000000      10.89000000      10.95000000      11.01000000      11.06000000      11.10000000      11.12000000      11.14000000      11.14000000
           9.53000000       9.55000000       9.64000000       9.78000000      10.01000000      10.30000000      10.43000000      10.40000000      10.29000000      10.16000000      10.10000000      10.11000000      10.21000000      10.35000000      10.49000000      10.61000000      10.69000000      10.74000000      10.80000000      10.85000000      10.91000000      10.96000000      11.00000000      11.01000000      11.02000000
           9.15000000       9.16000000       9.17000000       9.24000000       9.36000000       9.45000000       9.45000000       9.44000000       9.45000000       9.53000000       9.64000000       9.77000000       9.94000000      10.06000000      10.25000000      10.40000000      10.51000000      10.57000000      10.61000000      10.67000000      10.72000000      10.79000000      10.83000000      10.86000000      10.88000000
           8.70000000       8.70000000       8.72000000       8.74000000       8.76000000       8.80000000       8.82000000       8.87000000       8.93000000       9.03000000       9.21000000       9.35000000       9.53000000       9.70000000       9.91000000      10.11000000      10.26000000      10.36000000      10.41000000      10.47000000      10.53000000      10.59000000      10.65000000      10.70000000      10.73000000
           8.31000000       8.28000000       8.27000000       8.27000000       8.27000000       8.29000000       8.33000000       8.32000000       8.37000000       8.49000000       8.68000000       8.86000000       9.00000000       9.21000000       9.46000000       9.72000000       9.97000000      10.09000000      10.16000000      10.23000000      10.32000000      10.40000000      10.47000000      10.53000000      10.57000000
           7.87000000       7.82000000       7.82000000       7.82000000       7.81000000       7.77000000       7.68000000       7.64000000       7.66000000       7.84000000       8.06000000       8.34000000       8.55000000       8.75000000       9.03000000       9.29000000       9.60000000       9.78000000       9.86000000       9.96000000      10.08000000      10.20000000      10.28000000      10.34000000      10.38000000
           7.36000000       7.33000000       7.29000000       7.26000000       7.22000000       7.10000000       6.86000000       6.64000000       6.53000000       6.90000000       7.39000000       7.66000000       7.95000000       8.21000000       8.55000000       8.83000000       9.14000000       9.37000000       9.55000000       9.70000000       9.84000000       9.96000000      10.04000000      10.10000000      10.13000000
           6.82000000       6.81000000       6.73000000       6.60000000       6.43000000       6.15000000       5.87000000       5.42000000       1.87000000       5.56000000       6.23000000       6.77000000       7.19000000       7.60000000       8.01000000       8.32000000       8.65000000       8.95000000       9.19000000       9.41000000       9.56000000       9.69000000       9.76000000       9.80000000       9.81000000
           6.38000000       6.34000000       6.23000000       6.03000000       5.78000000       5.45000000       5.08000000       4.51000000       1.75000000       4.55000000       5.36000000       6.01000000       6.53000000       7.00000000       7.48000000       7.88000000       8.24000000       8.55000000       8.85000000       9.09000000       9.26000000       9.39000000       9.44000000       9.47000000       9.47000000
           5.99000000       5.89000000       5.76000000       5.56000000       5.31000000       4.96000000       4.52000000       3.94000000       1.70000000       3.90000000       4.55000000       5.34000000       5.91000000       6.39000000       6.94000000       7.40000000       7.78000000       8.09000000       8.39000000       8.65000000       8.76000000       8.97000000       9.06000000       9.10000000       9.12000000
           5.61000000       5.51000000       5.37000000       5.16000000       4.93000000       4.58000000       4.12000000       3.57000000       1.62000000       3.55000000       4.17000000       4.82000000       5.35000000       5.85000000       6.37000000       6.85000000       7.24000000       7.59000000       7.82000000       8.07000000       8.23000000       8.38000000       8.56000000       8.67000000       8.72000000
           5.28000000       5.17000000       5.04000000       4.86000000       4.62000000       4.26000000       3.80000000       3.30000000       1.50000000       3.30000000       3.90000000       4.45000000       4.95000000       5.42000000       5.92000000       6.36000000       6.78000000       7.10000000       7.40000000       7.62000000       7.81000000       7.96000000       8.12000000       8.23000000       8.26000000
           4.91000000       4.84000000       4.72000000       4.55000000       4.34000000       3.95000000       3.52000000       3.04000000       1.38000000       3.08000000       3.65000000       4.19000000       4.64000000       5.07000000       5.53000000       5.93000000       6.40000000       6.69000000       7.01000000       7.29000000       7.47000000       7.62000000       7.76000000       7.85000000       7.91000000
           4.45000000       4.46000000       4.39000000       4.22000000       4.00000000       3.65000000       3.22000000       2.78000000       1.28000000       2.86000000       3.44000000       3.95000000       4.42000000       4.83000000       5.26000000       5.68000000       6.08000000       6.43000000       6.70000000       6.97000000       7.16000000       7.31000000       7.45000000       7.57000000       7.60000000
           4.11000000       4.11000000       4.04000000       3.90000000       3.67000000       3.34000000       2.94000000       2.55000000       1.17000000       2.69000000       3.24000000       3.71000000       4.20000000       4.66000000       5.07000000       5.48000000       5.91000000       6.23000000       6.48000000       6.72000000       6.91000000       7.05000000       7.19000000       7.29000000       7.35000000
           3.82000000       3.81000000       3.74000000       3.59000000       3.37000000       3.10000000       2.70000000       2.35000000       1.05000000       2.55000000       3.08000000       3.52000000       3.98000000       4.48000000       4.93000000       5.32000000       5.76000000       6.06000000       6.31000000       6.53000000       6.72000000       6.86000000       6.98000000       7.08000000       7.14000000
           3.56000000       3.53000000       3.45000000       3.31000000       3.11000000       2.83000000       2.52000000       2.17000000       0.96000000       2.37000000       2.93000000       3.35000000       3.84000000       4.30000000       4.77000000       5.22000000       5.61000000       5.90000000       6.15000000       6.37000000       6.55000000       6.70000000       6.81000000       6.90000000       6.96000000
           3.34000000       3.30000000       3.21000000       3.06000000       2.88000000       2.63000000       2.33000000       2.01000000       0.86000000       2.23000000       2.74000000       3.21000000       3.73000000       4.20000000       4.66000000       5.10000000       5.48000000       5.77000000       6.01000000       6.23000000       6.41000000       6.56000000       6.67000000       6.75000000       6.81000000
           3.18000000       3.14000000       3.04000000       2.87000000       2.70000000       2.46000000       2.18000000       1.88000000       0.76000000       2.10000000       2.54000000       3.04000000       3.63000000       4.14000000       4.59000000       5.02000000       5.39000000       5.68000000       5.90000000       6.11000000       6.29000000       6.44000000       6.55000000       6.63000000       6.67000000
           3.03000000       2.99000000       2.87000000       2.72000000       2.55000000       2.32000000       2.09000000       1.79000000       0.67000000       1.97000000       2.40000000       2.87000000       3.48000000       4.03000000       4.54000000       4.95000000       5.32000000       5.60000000       5.81000000       6.01000000       6.19000000       6.34000000       6.44000000       6.52000000       6.57000000
           2.91000000       2.85000000       2.75000000       2.59000000       2.43000000       2.23000000       2.01000000       1.73000000       0.56000000       1.90000000       2.33000000       2.77000000       3.31000000       3.89000000       4.51000000       4.91000000       5.25000000       5.54000000       5.75000000       5.94000000       6.09000000       6.24000000       6.36000000       6.44000000       6.48000000
           2.82000000       2.76000000       2.64000000       2.49000000       2.34000000       2.18000000       1.97000000       1.67000000       0.46000000       1.83000000       2.28000000       2.73000000       3.21000000       3.76000000       4.40000000       4.82000000       5.20000000       5.50000000       5.71000000       5.89000000       6.04000000       6.17000000       6.28000000       6.36000000       6.41000000
           2.72000000       2.67000000       2.56000000       2.42000000       2.28000000       2.13000000       1.92000000       1.62000000       0.35000000       1.79000000       2.25000000       2.74000000       3.19000000       3.69000000       4.25000000       4.69000000       5.13000000       5.43000000       5.68000000       5.86000000       6.01000000       6.13000000       6.23000000       6.31000000       6.36000000
           2.64000000       2.59000000       2.49000000       2.37000000       2.25000000       2.09000000       1.88000000       1.60000000       0.25000000       1.76000000       2.25000000       2.75000000       3.21000000       3.65000000       4.13000000       4.58000000       5.03000000       5.40000000       5.65000000       5.84000000       5.99000000       6.11000000       6.20000000       6.28000000       6.32000000
           2.60000000       2.56000000       2.46000000       2.35000000       2.23000000       2.07000000       1.87000000       1.58000000       0.16000000       1.73000000       2.26000000       2.75000000       3.20000000       3.65000000       4.09000000       4.53000000       4.99000000       5.38000000       5.64000000       5.83000000       5.97000000       6.09000000       6.19000000       6.26000000       6.30000000
    INTERNAL  FACTOR  1.0
          11.33000000      11.32000000      11.30000000      11.28000000      11.28000000      11.31000000      11.34000000      11.38000000      11.42000000      11.46000000      11.53000000      11.60000000      11.66000000      11.73000000      11.79000000      11.84000000      11.89000000      11.94000000      11.99000000      12.05000000      12.09000000      12.14000000      12.19000000      12.24000000      12.27000000
          11.31000000      11.29000000      11.26000000      11.24000000      11.23000000      11.25000000      11.30000000      11.36000000      11.43000000      11.50000000      11.59000000      11.67000000      11.74000000      11.81000000      11.86000000      11.91000000      11.95000000      11.99000000      12.03000000      12.06000000      12.10000000      12.14000000      12.18000000      12.23000000      12.26000000
          11.28000000      11.24000000      11.18000000      11.13000000      11.11000000      11.13000000      11.19000000      11.30000000      11.41000000      11.52000000      11.61000000      11.71000000      11.79000000      11.85000000      11.91000000      11.96000000      12.01000000      12.05000000      12.09000000      12.13000000      12.17000000      12.20000000      12.22000000      12.23000000      12.24000000
          11.23000000      11.17000000      11.06000000      11.00000000      11.00000000      11.00000000      11.00000000      11.20000000      11.37000000      11.50000000      11.62000000      11.72000000      11.80000000      11.87000000      11.93000000      11.99000000      12.04000000      12.09000000      12.13000000      12.17000000      12.21000000      12.23000000      12.24000000      12.23000000      12.20000000
          11.17000000      11.10000000      11.00000000      11.00000000      11.00000000      11.00000000      11.00000000      11.14000000      11.33000000      11.48000000      11.61000000      11.72000000      11.80000000      11.88000000      11.94000000      12.00000000      12.06000000      12.11000000      12.15000000      12.19000000      12.22000000      12.23000000      12.22000000      12.20000000      12.16000000
          11.13000000      11.07000000      11.00000000      11.00000000      11.00000000      11.00000000      11.00000000      11.13000000      11.31000000      11.46000000      11.59000000      11.70000000      11.79000000      11.86000000      11.94000000      12.00000000      12.05000000      12.10000000      12.14000000      12.18000000      12.20000000      12.20000000      12.17000000      12.12000000      12.10000000
          11.11000000      11.06000000      11.00000000      11.00000000      11.00000000      11.00000000      11.00000000      11.12000000      11.29000000      11.43000000      11.56000000      11.67000000      11.75000000      11.83000000      11.91000000      11.97000000      12.02000000      12.06000000      12.10000000      12.13000000      12.14000000      12.14000000      12.08000000      12.04000000      12.04000000
          11.09000000      11.05000000      11.00000000      11.00000000      11.00000000      11.00000000      11.00000000      11.11000000      11.26000000      11.40000000      11.52000000      11.63000000      11.72000000      11.79000000      11.86000000      11.92000000      11.97000000      12.00000000      12.03000000      12.05000000      12.05000000      12.05000000      12.02000000      11.97000000      11.96000000
          11.06000000      11.03000000      11.00000000      11.00000000      11.00000000      11.00000000      11.00000000      11.06000000      11.22000000      11.35000000      11.47000000      11.58000000      11.66000000      11.74000000      11.80000000      11.85000000      11.89000000      11.92000000      11.93000000      11.94000000      11.94000000      11.93000000      11.91000000      11.87000000      11.87000000
          11.02000000      11.01000000      11.00000000      11.00000000      11.00000000      11.00000000      11.00000000      11.00000000      11.14000000      11.30000000      11.42000000      11.52000000      11.60000000      11.66000000      11.71000000      11.76000000      11.79000000      11.80000000      11.81000000      11.82000000      11.81000000      11.79000000      11.76000000      11.76000000      11.77000000
          10.96000000      10.97000000      10.99000000      11.00000000      11.00000000      11.00000000      11.00000000      11.00000000      11.07000000      11.23000000      11.35000000      11.45000000      11.52000000      11.57000000      11.60000000      11.62000000      11.63000000      11.63000000      11.63000000      11.65000000      11.65000000      11.65000000      11.64000000      11.65000000      11.66000000
          10.86000000      10.88000000      10.94000000      11.00000000      11.00000000      11.00000000      11.00000000      11.00000000      11.00000000      11.16000000      11.28000000      11.36000000      11.42000000      11.45000000      11.47000000      11.47000000      11.46000000      11.45000000      11.46000000      11.49000000      11.52000000      11.53000000      11.54000000      11.54000000      11.55000000
          10.71000000      10.76000000      10.84000000      10.95000000      11.00000000      11.00000000      11.00000000      11.00000000      11.00000000      11.09000000      11.18000000      11.25000000      11.28000000      11.29000000      11.28000000      11.26000000      11.29000000      11.32000000      11.35000000      11.38000000      11.40000000      11.42000000      11.44000000      11.45000000      11.45000000
          10.49000000      10.57000000      10.70000000      10.87000000      11.00000000      11.00000000      11.00000000      11.00000000      11.00000000      11.02000000      11.06000000      11.09000000      11.11000000      11.10000000      11.06000000      11.07000000      11.14000000      11.19000000      11.23000000      11.27000000      11.30000000      11.32000000      11.34000000      11.35000000      11.35000000
          10.16000000      10.30000000      10.47000000      10.71000000      10.99000000      11.00000000      11.00000000      11.00000000      11.00000000      10.91000000      10.86000000      10.85000000      10.87000000      10.89000000      10.88000000      10.92000000      10.98000000      11.05000000      11.10000000      11.15000000      11.19000000      11.22000000      11.23000000      11.24000000      11.25000000
           9.86000000       9.94000000      10.11000000      10.38000000      10.76000000      11.00000000      11.00000000      11.00000000      10.98000000      10.69000000      10.57000000      10.52000000      10.54000000      10.61000000      10.70000000      10.78000000      10.84000000      10.89000000      10.95000000      11.01000000      11.06000000      11.10000000      11.12000000      11.14000000      11.14000000
           9.53000000       9.55000000       9.64000000       9.78000000      10.01000000      10.29000000      10.43000000      10.40000000      10.29000000      10.16000000      10.10000000      10.11000000      10.21000000      10.35000000      10.49000000      10.61000000      10.69000000      10.74000000      10.80000000      10.85000000      10.91000000      10.96000000      11.00000000      11.01000000      11.02000000
           9.15000000       9.15000000       9.17000000       9.24000000       9.36000000       9.44000000       9.44000000       9.44000000       9.44000000       9.52000000       9.64000000       9.77000000       9.94000000      10.06000000      10.25000000      10.40000000      10.51000000      10.57000000      10.61000000      10.67000000      10.72000000      10.78000000      10.83000000      10.86000000      10.88000000
           8.69000000       8.70000000       8.72000000       8.74000000       8.76000000       8.79000000       8.82000000       8.87000000       8.93000000       9.03000000       9.21000000       9.35000000       9.52000000       9.70000000       9.91000000      10.11000000      10.26000000      10.35000000      10.41000000      10.46000000      10.53000000      10.59000000      10.65000000      10.70000000      10.73000000
           8.30000000       8.28000000       8.26000000       8.27000000       8.27000000       8.28000000       8.32000000       8.32000000       8.37000000       8.49000000       8.68000000       8.86000000       9.00000000       9.20000000       9.46000000       9.72000000       9.97000000      10.09000000      10.16000000      10.22000000      10.32000000      10.40000000      10.47000000      10.53000000      10.57000000
           7.87000000       7.82000000       7.82000000       7.82000000       7.81000000       7.77000000       7.68000000       7.64000000       7.66000000       7.83000000       8.06000000       8.33000000       8.55000000       8.74000000       9.03000000       9.29000000       9.60000000       9.78000000       9.86000000       9.96000000      10.08000000      10.20000000      10.28000000      10.34000000      10.38000000
           7.36000000       7.33000000       7.29000000       7.26000000       7.22000000       7.09000000       6.86000000       6.64000000       6.53000000       6.90000000       7.39000000       7.66000000       7.95000000       8.21000000       8.55000000       8.82000000       9.14000000       9.37000000       9.55000000       9.70000000       9.84000000       9.96000000      10.04000000      10.10000000      10.13000000
           6.82000000       6.81000000       6.73000000       6.59000000       6.42000000       6.14000000       5.87000000       5.42000000       2.51000000       5.56000000       6.23000000       6.77000000       7.19000000       7.60000000       8.01000000       8.32000000       8.65000000       8.95000000       9.19000000       9.41000000       9.56000000       9.68000000       9.76000000       9.80000000       9.81000000
           6.38000000       6.34000000       6.23000000       6.03000000       5.78000000       5.45000000       5.07000000       4.51000000       2.20000000       4.55000000       5.36000000       6.01000000       6.52000000       6.99000000       7.48000000       7.88000000       8.23000000       8.54000000       8.85000000       9.09000000       9.26000000       9.39000000       9.44000000       9.46000000       9.47000000
           5.99000000       5.89000000       5.76000000       5.56000000       5.31000000       4.96000000       4.52000000       3.94000000       2.05000000       3.90000000       4.55000000       5.33000000       5.91000000       6.39000000       6.94000000       7.39000000       7.78000000       8.09000000       8.39000000       8.65000000       8.75000000       8.96000000       9.05000000       9.10000000       9.11000000
           5.61000000       5.51000000       5.37000000       5.16000000       4.93000000       4.58000000       4.12000000       3.57000000       1.94000000       3.55000000       4.17000000       4.81000000       5.35000000       5.85000000       6.37000000       6.85000000       7.24000000       7.58000000       7.82000000       8.07000000       8.22000000       8.38000000       8.55000000       8.66000000       8.72000000
           5.27000000       5.16000000       5.04000000       4.86000000       4.62000000       4.26000000       3.80000000       3.30000000       1.80000000       3.30000000       3.90000000       4.45000000       4.94000000       5.42000000       5.92000000       6.35000000       6.78000000       7.10000000       7.40000000       7.62000000       7.81000000       7.96000000       8.12000000       8.23000000       8.26000000
           4.91000000       4.84000000       4.72000000       4.55000000       4.33000000       3.95000000       3.52000000       3.04000000       1.65000000       3.08000000       3.65000000       4.19000000       4.64000000       5.07000000       5.53000000       5.93000000       6.39000000       6.69000000       7.01000000       7.29000000       7.47000000       7.62000000       7.76000000       7.85000000       7.91000000
           4.45000000       4.46000000       4.38000000       4.21000000       3.99000000       3.65000000       3.22000000       2.78000000       1.52000000       2.86000000       3.44000000       3.94000000       4.42000000       4.83000000       5.26000000       5.68000000       6.08000000       6.43000000       6.70000000       6.96000000       7.16000000       7.31000000       7.45000000       7.57000000       7.60000000