# File generated by Flopy version 3.9.5 on 12/31/2025 at 10:07:20.
BEGIN options
  SAVE_FLOWS
END options

BEGIN packages
  DIS6  sv.dis  dis
  IC6  sv.ic  ic
  NPF6  sv.npf  npf
  RCH6  sv.rcha  rcha_0
  RIV6  sv.riv  riv_0
  WEL6  sv.wel  pwell
  DRN6  sv.drn  dewater
  OC6  sv.oc  oc
  OBS6  sv.obs  obs_1
END packages

