# File generated by Flopy version 3.9.5 on 12/31/2025 at 10:07:20.
BEGIN options
  BUDGET  FILEOUT  sv.cbc
  HEAD  FILEOUT  sv.hds
END options

BEGIN period  1
  SAVE  HEAD  ALL
  SAVE  BUDGET  ALL
END period  1

