# File generated by Flopy version 3.9.5 on 12/31/2025 at 10:07:20.
BEGIN options
END options

BEGIN continuous  FILEOUT  sv.riv.obs.csv
  PF  RIV  PF
  RIVFLOW  RIV  RIV
END continuous  FILEOUT  sv.riv.obs.csv

