# File generated by Flopy version 3.9.5 on 12/31/2025 at 10:07:20.
BEGIN options
  TIME_UNITS  day
END options

BEGIN dimensions
  NPER  4
END dimensions

BEGIN perioddata
       1.00000000  1       1.00000000
       1.00000000  1       1.00000000
       1.00000000  1       1.00000000
       1.00000000  1       1.00000000
END perioddata

