# File generated by Flopy version 3.9.5 on 01/09/2026 at 15:41:11.
BEGIN options
  SAVE_FLOWS
  NEWTON  UNDER_RELAXATION
END options

BEGIN packages
  OBS6  sv.obs  obs_2
  MAW6  sv.maw  pwell
  UZF6  sv.uzf  uzf-1
  oc6  sv.oc  oc
  wel6  sv.prediction.well  prediction
  sto6  sv.sto  sto
  npf6  sv.npf  npf
  ic6  sv.ic  ic
  dis6  sv.dis  dis
  SFR6  sv.sfr  sfr-1
  LAK6  sv.lak  lak-1
  MVR6  sv.mvr  mvr
END packages

