# File generated by Flopy version 3.9.5 on 01/10/2026 at 11:59:31.
BEGIN options
  BUDGET  FILEOUT  sv.cbc
  BUDGETCSV  FILEOUT  sv-budget.csv
  HEAD  FILEOUT  sv.hds
END options

BEGIN period  1
  SAVE  head  all
  SAVE  budget  all
END period  1

