# File generated by Flopy version 3.9.5 on 01/09/2026 at 11:54:37.
BEGIN options
END options

BEGIN dimensions
  MAXBOUND  1
END dimensions

BEGIN period  122
    OPEN/CLOSE  'external/sv.prediction.well_stress_period_data_122.txt'
END period  122

BEGIN period  123
    OPEN/CLOSE  'external/sv.prediction.well_stress_period_data_123.txt'
END period  123

BEGIN period  124
    OPEN/CLOSE  'external/sv.prediction.well_stress_period_data_124.txt'
END period  124

BEGIN period  125
    OPEN/CLOSE  'external/sv.prediction.well_stress_period_data_125.txt'
END period  125

BEGIN period  126
    OPEN/CLOSE  'external/sv.prediction.well_stress_period_data_126.txt'
END period  126

BEGIN period  127
    OPEN/CLOSE  'external/sv.prediction.well_stress_period_data_127.txt'
END period  127

BEGIN period  128
    OPEN/CLOSE  'external/sv.prediction.well_stress_period_data_128.txt'
END period  128

BEGIN period  129
    OPEN/CLOSE  'external/sv.prediction.well_stress_period_data_129.txt'
END period  129

BEGIN period  130
    OPEN/CLOSE  'external/sv.prediction.well_stress_period_data_130.txt'
END period  130

BEGIN period  131
    OPEN/CLOSE  'external/sv.prediction.well_stress_period_data_131.txt'
END period  131

BEGIN period  132
    OPEN/CLOSE  'external/sv.prediction.well_stress_period_data_132.txt'
END period  132

BEGIN period  133
    OPEN/CLOSE  'external/sv.prediction.well_stress_period_data_133.txt'
END period  133

BEGIN period  134
    OPEN/CLOSE  'external/sv.prediction.well_stress_period_data_134.txt'
END period  134

BEGIN period  135
    OPEN/CLOSE  'external/sv.prediction.well_stress_period_data_135.txt'
END period  135

BEGIN period  136
    OPEN/CLOSE  'external/sv.prediction.well_stress_period_data_136.txt'
END period  136

BEGIN period  137
    OPEN/CLOSE  'external/sv.prediction.well_stress_period_data_137.txt'
END period  137

BEGIN period  138
    OPEN/CLOSE  'external/sv.prediction.well_stress_period_data_138.txt'
END period  138

BEGIN period  139
    OPEN/CLOSE  'external/sv.prediction.well_stress_period_data_139.txt'
END period  139

BEGIN period  140
    OPEN/CLOSE  'external/sv.prediction.well_stress_period_data_140.txt'
END period  140

BEGIN period  141
    OPEN/CLOSE  'external/sv.prediction.well_stress_period_data_141.txt'
END period  141

BEGIN period  142
    OPEN/CLOSE  'external/sv.prediction.well_stress_period_data_142.txt'
END period  142

BEGIN period  143
    OPEN/CLOSE  'external/sv.prediction.well_stress_period_data_143.txt'
END period  143

BEGIN period  144
    OPEN/CLOSE  'external/sv.prediction.well_stress_period_data_144.txt'
END period  144

BEGIN period  145
    OPEN/CLOSE  'external/sv.prediction.well_stress_period_data_145.txt'
END period  145

BEGIN period  146
    OPEN/CLOSE  'external/sv.prediction.well_stress_period_data_146.txt'
END period  146

BEGIN period  147
    OPEN/CLOSE  'external/sv.prediction.well_stress_period_data_147.txt'
END period  147

BEGIN period  148
    OPEN/CLOSE  'external/sv.prediction.well_stress_period_data_148.txt'
END period  148

BEGIN period  149
    OPEN/CLOSE  'external/sv.prediction.well_stress_period_data_149.txt'
END period  149

BEGIN period  150
    OPEN/CLOSE  'external/sv.prediction.well_stress_period_data_150.txt'
END period  150

BEGIN period  151
    OPEN/CLOSE  'external/sv.prediction.well_stress_period_data_151.txt'
END period  151

BEGIN period  152
    OPEN/CLOSE  'external/sv.prediction.well_stress_period_data_152.txt'
END period  152

BEGIN period  153
    OPEN/CLOSE  'external/sv.prediction.well_stress_period_data_153.txt'
END period  153

BEGIN period  154
    OPEN/CLOSE  'external/sv.prediction.well_stress_period_data_154.txt'
END period  154

BEGIN period  155
    OPEN/CLOSE  'external/sv.prediction.well_stress_period_data_155.txt'
END period  155

BEGIN period  156
    OPEN/CLOSE  'external/sv.prediction.well_stress_period_data_156.txt'
END period  156

BEGIN period  157
    OPEN/CLOSE  'external/sv.prediction.well_stress_period_data_157.txt'
END period  157

BEGIN period  158
    OPEN/CLOSE  'external/sv.prediction.well_stress_period_data_158.txt'
END period  158

BEGIN period  159
    OPEN/CLOSE  'external/sv.prediction.well_stress_period_data_159.txt'
END period  159

BEGIN period  160
    OPEN/CLOSE  'external/sv.prediction.well_stress_period_data_160.txt'
END period  160

BEGIN period  161
    OPEN/CLOSE  'external/sv.prediction.well_stress_period_data_161.txt'
END period  161

BEGIN period  162
    OPEN/CLOSE  'external/sv.prediction.well_stress_period_data_162.txt'
END period  162

BEGIN period  163
    OPEN/CLOSE  'external/sv.prediction.well_stress_period_data_163.txt'
END period  163

BEGIN period  164
    OPEN/CLOSE  'external/sv.prediction.well_stress_period_data_164.txt'
END period  164

BEGIN period  165
    OPEN/CLOSE  'external/sv.prediction.well_stress_period_data_165.txt'
END period  165

BEGIN period  166
    OPEN/CLOSE  'external/sv.prediction.well_stress_period_data_166.txt'
END period  166

BEGIN period  167
    OPEN/CLOSE  'external/sv.prediction.well_stress_period_data_167.txt'
END period  167

BEGIN period  168
    OPEN/CLOSE  'external/sv.prediction.well_stress_period_data_168.txt'
END period  168

BEGIN period  169
    OPEN/CLOSE  'external/sv.prediction.well_stress_period_data_169.txt'
END period  169

BEGIN period  170
    OPEN/CLOSE  'external/sv.prediction.well_stress_period_data_170.txt'
END period  170

BEGIN period  171
    OPEN/CLOSE  'external/sv.prediction.well_stress_period_data_171.txt'
END period  171

BEGIN period  172
    OPEN/CLOSE  'external/sv.prediction.well_stress_period_data_172.txt'
END period  172

BEGIN period  173
    OPEN/CLOSE  'external/sv.prediction.well_stress_period_data_173.txt'
END period  173

BEGIN period  174
    OPEN/CLOSE  'external/sv.prediction.well_stress_period_data_174.txt'
END period  174

BEGIN period  175
    OPEN/CLOSE  'external/sv.prediction.well_stress_period_data_175.txt'
END period  175

BEGIN period  176
    OPEN/CLOSE  'external/sv.prediction.well_stress_period_data_176.txt'
END period  176

BEGIN period  177
    OPEN/CLOSE  'external/sv.prediction.well_stress_period_data_177.txt'
END period  177

BEGIN period  178
    OPEN/CLOSE  'external/sv.prediction.well_stress_period_data_178.txt'
END period  178

BEGIN period  179
    OPEN/CLOSE  'external/sv.prediction.well_stress_period_data_179.txt'
END period  179

BEGIN period  180
    OPEN/CLOSE  'external/sv.prediction.well_stress_period_data_180.txt'
END period  180

BEGIN period  181
    OPEN/CLOSE  'external/sv.prediction.well_stress_period_data_181.txt'
END period  181

BEGIN period  182
    OPEN/CLOSE  'external/sv.prediction.well_stress_period_data_182.txt'
END period  182

BEGIN period  183
    OPEN/CLOSE  'external/sv.prediction.well_stress_period_data_183.txt'
END period  183

BEGIN period  184
    OPEN/CLOSE  'external/sv.prediction.well_stress_period_data_184.txt'
END period  184

BEGIN period  185
    OPEN/CLOSE  'external/sv.prediction.well_stress_period_data_185.txt'
END period  185

BEGIN period  186
    OPEN/CLOSE  'external/sv.prediction.well_stress_period_data_186.txt'
END period  186

BEGIN period  187
    OPEN/CLOSE  'external/sv.prediction.well_stress_period_data_187.txt'
END period  187

BEGIN period  188
    OPEN/CLOSE  'external/sv.prediction.well_stress_period_data_188.txt'
END period  188

BEGIN period  189
    OPEN/CLOSE  'external/sv.prediction.well_stress_period_data_189.txt'
END period  189

BEGIN period  190
    OPEN/CLOSE  'external/sv.prediction.well_stress_period_data_190.txt'
END period  190

BEGIN period  191
    OPEN/CLOSE  'external/sv.prediction.well_stress_period_data_191.txt'
END period  191

BEGIN period  192
    OPEN/CLOSE  'external/sv.prediction.well_stress_period_data_192.txt'
END period  192

BEGIN period  193
    OPEN/CLOSE  'external/sv.prediction.well_stress_period_data_193.txt'
END period  193

BEGIN period  194
    OPEN/CLOSE  'external/sv.prediction.well_stress_period_data_194.txt'
END period  194

BEGIN period  195
    OPEN/CLOSE  'external/sv.prediction.well_stress_period_data_195.txt'
END period  195

BEGIN period  196
    OPEN/CLOSE  'external/sv.prediction.well_stress_period_data_196.txt'
END period  196

BEGIN period  197
    OPEN/CLOSE  'external/sv.prediction.well_stress_period_data_197.txt'
END period  197

BEGIN period  198
    OPEN/CLOSE  'external/sv.prediction.well_stress_period_data_198.txt'
END period  198

BEGIN period  199
    OPEN/CLOSE  'external/sv.prediction.well_stress_period_data_199.txt'
END period  199

BEGIN period  200
    OPEN/CLOSE  'external/sv.prediction.well_stress_period_data_200.txt'
END period  200

BEGIN period  201
    OPEN/CLOSE  'external/sv.prediction.well_stress_period_data_201.txt'
END period  201

BEGIN period  202
    OPEN/CLOSE  'external/sv.prediction.well_stress_period_data_202.txt'
END period  202

BEGIN period  203
    OPEN/CLOSE  'external/sv.prediction.well_stress_period_data_203.txt'
END period  203

BEGIN period  204
    OPEN/CLOSE  'external/sv.prediction.well_stress_period_data_204.txt'
END period  204

BEGIN period  205
    OPEN/CLOSE  'external/sv.prediction.well_stress_period_data_205.txt'
END period  205

BEGIN period  206
    OPEN/CLOSE  'external/sv.prediction.well_stress_period_data_206.txt'
END period  206

BEGIN period  207
    OPEN/CLOSE  'external/sv.prediction.well_stress_period_data_207.txt'
END period  207

BEGIN period  208
    OPEN/CLOSE  'external/sv.prediction.well_stress_period_data_208.txt'
END period  208

BEGIN period  209
    OPEN/CLOSE  'external/sv.prediction.well_stress_period_data_209.txt'
END period  209

BEGIN period  210
    OPEN/CLOSE  'external/sv.prediction.well_stress_period_data_210.txt'
END period  210

BEGIN period  211
    OPEN/CLOSE  'external/sv.prediction.well_stress_period_data_211.txt'
END period  211

BEGIN period  212
    OPEN/CLOSE  'external/sv.prediction.well_stress_period_data_212.txt'
END period  212

BEGIN period  213
    OPEN/CLOSE  'external/sv.prediction.well_stress_period_data_213.txt'
END period  213

BEGIN period  214
    OPEN/CLOSE  'external/sv.prediction.well_stress_period_data_214.txt'
END period  214

BEGIN period  215
    OPEN/CLOSE  'external/sv.prediction.well_stress_period_data_215.txt'
END period  215

BEGIN period  216
    OPEN/CLOSE  'external/sv.prediction.well_stress_period_data_216.txt'
END period  216

BEGIN period  217
    OPEN/CLOSE  'external/sv.prediction.well_stress_period_data_217.txt'
END period  217

BEGIN period  218
    OPEN/CLOSE  'external/sv.prediction.well_stress_period_data_218.txt'
END period  218

BEGIN period  219
    OPEN/CLOSE  'external/sv.prediction.well_stress_period_data_219.txt'
END period  219

BEGIN period  220
    OPEN/CLOSE  'external/sv.prediction.well_stress_period_data_220.txt'
END period  220

BEGIN period  221
    OPEN/CLOSE  'external/sv.prediction.well_stress_period_data_221.txt'
END period  221

BEGIN period  222
    OPEN/CLOSE  'external/sv.prediction.well_stress_period_data_222.txt'
END period  222

BEGIN period  223
    OPEN/CLOSE  'external/sv.prediction.well_stress_period_data_223.txt'
END period  223

BEGIN period  224
    OPEN/CLOSE  'external/sv.prediction.well_stress_period_data_224.txt'
END period  224

BEGIN period  225
    OPEN/CLOSE  'external/sv.prediction.well_stress_period_data_225.txt'
END period  225

BEGIN period  226
    OPEN/CLOSE  'external/sv.prediction.well_stress_period_data_226.txt'
END period  226

BEGIN period  227
    OPEN/CLOSE  'external/sv.prediction.well_stress_period_data_227.txt'
END period  227

BEGIN period  228
    OPEN/CLOSE  'external/sv.prediction.well_stress_period_data_228.txt'
END period  228

BEGIN period  229
    OPEN/CLOSE  'external/sv.prediction.well_stress_period_data_229.txt'
END period  229

BEGIN period  230
    OPEN/CLOSE  'external/sv.prediction.well_stress_period_data_230.txt'
END period  230

BEGIN period  231
    OPEN/CLOSE  'external/sv.prediction.well_stress_period_data_231.txt'
END period  231

BEGIN period  232
    OPEN/CLOSE  'external/sv.prediction.well_stress_period_data_232.txt'
END period  232

BEGIN period  233
    OPEN/CLOSE  'external/sv.prediction.well_stress_period_data_233.txt'
END period  233

BEGIN period  234
    OPEN/CLOSE  'external/sv.prediction.well_stress_period_data_234.txt'
END period  234

BEGIN period  235
    OPEN/CLOSE  'external/sv.prediction.well_stress_period_data_235.txt'
END period  235

BEGIN period  236
    OPEN/CLOSE  'external/sv.prediction.well_stress_period_data_236.txt'
END period  236

BEGIN period  237
    OPEN/CLOSE  'external/sv.prediction.well_stress_period_data_237.txt'
END period  237

BEGIN period  238
    OPEN/CLOSE  'external/sv.prediction.well_stress_period_data_238.txt'
END period  238

BEGIN period  239
    OPEN/CLOSE  'external/sv.prediction.well_stress_period_data_239.txt'
END period  239

BEGIN period  240
    OPEN/CLOSE  'external/sv.prediction.well_stress_period_data_240.txt'
END period  240

BEGIN period  241
    OPEN/CLOSE  'external/sv.prediction.well_stress_period_data_241.txt'
END period  241

