# File generated by Flopy version 3.9.5 on 01/12/2026 at 12:50:41.
BEGIN options
  BOUNDNAMES
  SAVE_FLOWS
  OBS6  FILEIN  sv.sfr.obs
  MOVER
  TIME_CONVERSION   86400.00000000
END options

BEGIN dimensions
  NREACHES  18
END dimensions

BEGIN packagedata
    OPEN/CLOSE  'external/sv.sfr_packagedata.txt'
END packagedata

BEGIN connectiondata
    OPEN/CLOSE  'external/sv.sfr_connectiondata.txt'
END connectiondata

