# File generated by Flopy version 3.9.5 on 01/15/2026 at 17:41:32.
BEGIN options
  PRINT_INPUT
END options

BEGIN continuous  FILEOUT  sv.sfr.obs.csv
    OPEN/CLOSE  'external/sv.sfr.obs_continuous_sv.sfr.obs.csv.txt'
END continuous  FILEOUT  sv.sfr.obs.csv

