# File generated by Flopy version 3.9.5 on 01/09/2026 at 15:41:11.
BEGIN options
  PRINT_INPUT
END options

BEGIN continuous  FILEOUT  sv.sfr.obs.csv
    OPEN/CLOSE  'external/sv.sfr.obs_continuous_sv.sfr.obs.csv.txt'
END continuous  FILEOUT  sv.sfr.obs.csv

