# File generated by Flopy version 3.9.5 on 01/10/2026 at 11:59:31.
BEGIN options
  PRINT_INPUT
END options

BEGIN continuous  FILEOUT  sv.sfr.obs.csv
    OPEN/CLOSE  'external/sv.sfr.obs_continuous_sv.sfr.obs.csv.txt'
END continuous  FILEOUT  sv.sfr.obs.csv

