BEGIN options
END options

BEGIN griddata
  strt  LAYERED
    INTERNAL  FACTOR  1.0
          12.97277585      12.98551754      13.00478931      13.02200929      13.03132707      13.03208885      13.02447526      13.01051420      12.99278561      12.97400912      12.94984246      12.88090380      12.68254346      12.73986407      12.80227378      12.86246027      12.92310907      12.98321869      13.04542218      13.10533446      13.15960956      13.21169422      13.27227361      13.33247524      13.37183812
          12.98396938      13.00178332      13.02834005      13.05156245      13.06519413      13.06638574      13.05289637      13.03112437      13.00937192      12.99457529      12.98603942      12.96761909      12.93149767      12.96058154      13.00538622      13.05305777      13.10110500      13.14123521      13.16346118      13.10349952      13.15554561      13.20795776      13.26430031      13.32353097      13.36316979
          13.00547932      13.03482279      13.08120146      13.12169121      13.14428862      13.14399778      13.11595716      13.07418901      13.03891982      13.01950582      13.02184136      13.03347946      13.04791705      13.07955480      13.11985797      13.16398942      13.20794258      13.24693544      13.27898758      13.29047494      13.32445493      13.36607154      13.40262700      13.41531251      13.33718736
          13.03755299      13.08631948      13.17875427      14.06603078      14.06603078      14.06603078      14.06603078      13.13671506      13.07680137      13.04599808      13.05004126      13.07345449      13.10532581      13.14426706      13.18522512      13.23075378      13.27624325      13.31997196      13.35792377      13.38859434      13.42094955      13.44396868      13.44634314      13.41036854      13.29023111
          13.06610689      13.13147823      14.06603078      14.06603078      14.06603078      14.06603078      14.06603078      13.18392683      13.10779350      13.06762216      13.06547287      13.09315087      13.13066395      13.17389649      13.22113113      13.26795625      13.31578053      13.36104746      13.39930268      13.43115796      13.45608240      13.46128520      13.43027746      13.35113415      13.24474304
          13.06889551      13.14791676      14.06603078      14.06603078      14.06603078      14.06603078      14.06603078      13.20912440      13.12497123      13.07715763      13.06852304      13.09270377      13.13131432      13.17855712      13.22995744      13.27844455      13.32346324      13.36529348      13.40283272      13.43319576      13.45002224      13.43806615      13.36796023      13.18913716      13.19528663
          13.02765246      13.11560187      14.06603078      14.06603078      14.06603078      14.06603078      14.06603078      13.22023406      13.12945710      13.07517069      13.05800984      13.07663650      13.11235764      13.15761811      13.21027191      13.25806964      13.29912489      13.33470273      13.36923391      13.39473101      13.40136174      13.37825070      13.29885696      13.12954766      13.13795555
          12.94367359      13.03509396      14.06603078      14.06603078      14.06603078      14.06603078      14.06603078      13.22955345      13.12756203      13.06135972      13.03400292      13.04552128      13.07650104      13.11621314      13.16280123      13.20517827      13.24283913      13.27145894      13.29602990      13.31132478      13.30547082      13.27930683      13.20338945      13.05342564      13.06118102
          12.83153567      12.92201617      14.06603078      14.06603078      14.06603078      14.06603078      14.06603078      13.25571500      13.12279733      13.04019037      12.99993890      12.99966223      13.02221033      13.05668048      13.09534607      13.12940332      13.15635602      13.17422654      13.18813562      13.19089541      13.17587302      13.13946414      13.06361092      12.96060915      12.97051512
          12.67941469      12.76789504      14.06603078      14.06603078      14.06603078      14.06603078      14.06603078      14.06603078      13.11595851      13.01146425      12.95201113      12.93951903      12.95161456      12.97418396      12.99863200      13.02202630      13.03361614      13.03049925      13.03764521      13.03799538      13.01540510      12.94820725      12.83372818      12.85553165      12.87383673
          12.48045834      12.55662104      12.72041460      14.06603078      14.06603078      14.06603078      14.06603078      14.06603078      13.12885611      12.96973660      12.88267961      12.85841097      12.86019791      12.86530992      12.86890711      12.86790719      12.84693214      12.80533843      12.81490810      12.83127901      12.81893301      12.71939529      12.73550989      12.75216903      12.76549046
          12.26006788      12.33041147      12.48557345      14.06603078      14.06603078      14.06603078      14.06603078      14.06603078      14.06603078      12.88462000      12.78412923      12.74874746      12.73684138      12.72067551      12.69438696      12.66868684      12.59973097      12.46620502      12.51273313      12.56089775      12.59691027      12.62289067      12.63974893      12.65111984      12.65686061
          11.98996549      12.07348911      12.22944309      12.44434939      14.06603078      14.06603078      14.06603078      14.06603078      14.06603078      12.76880249      12.65325935      12.60053905      12.56598226      12.51419060      12.43962418      12.41808795      12.31267216      12.36828016      12.41898066      12.46461357      12.49862424      12.52448222      12.54412137      12.55620142      12.56235960
          11.59649635      11.73969248      11.93278222      12.16229765      14.06603078      14.06603078      14.06603078      14.06603078      14.06603078      12.59061622      12.45498678      12.38656303      12.33317454      12.24042824      12.02612725      12.09483505      12.18113283      12.25488745      12.31101226      12.36039015      12.40064442      12.42827449      12.44741354      12.45929438      12.46566927
          10.91917741      11.28117760      11.55047652      11.79387642      14.06603078      14.06603078      14.06603078      14.06603078      14.06603078      12.31682300      12.16188849      12.07799926      12.01429849      11.97446435      11.87552666      11.95133201      12.03465694      12.11589780      12.18383391      12.24410261      12.29241046      12.32617834      12.34658269      12.35768338      12.36330436
          10.64303527      10.67188127      11.03947312      11.23770047      11.40814870      14.06603078      14.06603078      14.06603078      14.06603078      11.90449872      11.74847249      11.60961537      11.42274089      11.56301416      11.69437115      11.80044505      11.88870355      11.96470037      12.03806532      12.10678507      12.16496222      12.20810413      12.23727966      12.25194244      12.25872766
          10.30958878      10.31325645      10.33449961      10.37195693      10.43388463      10.88221657      11.08183459      11.10365393      11.09988097      11.15643108      11.11836429      10.94896238      11.11242617      11.28912608      11.53424276      11.71490391      11.81345678      11.80271207      11.87644412      11.94553897      12.01062964      12.06692909      12.10519259      12.12747134      12.13633649
           9.89946921       9.89511555       9.89216802       9.92409842       9.96436933       9.98754708       9.98489046       9.99008606      10.04999732      10.17920634      10.36503549      10.57218894      10.79223432      10.98419525      11.17307626      11.50390314      11.66157488      11.71263777      11.68765640      11.75952800      11.82528459      11.89162655      11.94408661      11.98108181      11.99532803
           9.44344466       9.42907011       9.40781866       9.41013085       9.40773764       9.40486751       9.40120128       9.41200803       9.48312668       9.63825293       9.87743875      10.10489966      10.33962526      10.68440043      10.95265732      11.21569624      11.43053746      11.53161902      11.55909790      11.54345093      11.62381346      11.69753066      11.76420326      11.81885550      11.84716090
           8.99616632       8.95283876       8.92196624       8.89734303       8.86129450       8.82682831       8.79669967       8.74860049       8.79265457       8.98396101       9.25932404       9.54989369       9.77043622      10.04216521      10.33331820      10.59996855      11.09565555      11.26625599      11.32474562      11.35620601      11.40316649      11.49867069      11.57919540      11.64360806      11.68458942
           8.51672412       8.45628842       8.41619709       8.37869884       8.31538385       8.19031141       8.00473379       7.86034292       7.84175247       8.11488029       8.50017626       8.90225733       9.20414737       9.49788001      10.04808546      10.41038842      10.76018217      10.92893539      10.99046411      11.01269170      11.15787798      11.28349778      11.37935696      11.45055874      11.49749240
           7.95391277       7.90428610       7.83472763       7.73743584       7.59197579       7.31553164       6.92035923       6.55557872       6.33887680       6.85614691       7.49527149       8.06374537       8.50997982       9.08337487       9.58762024       9.95969160      10.29503123      10.47506544      10.54127539      10.74037351      10.90462536      11.04310207      11.13951024      11.20644477      11.24422370
           7.37009681       7.32555693       7.20527002       6.99336844       6.69131659       6.24866163       5.65468213       4.83428258       1.89061278       4.92192049       6.12862403       7.04912574       7.68157833       8.19406682       8.94164096       9.41815338       9.72617854       9.89062564      10.19769006      10.44442030      10.63044839      10.76777405      10.85505238      10.90611147      10.92343926
           6.85263619       6.77513065       6.59888112       6.29713944       5.88014430       5.35304927       4.64757649       3.74312482       1.55437950       3.63778198       4.86368072       5.99465800       6.81955531       7.48339078       8.09948404       8.84778745       9.09012992       9.47952040       9.82893289      10.09895544      10.30401808      10.44568086      10.52585887      10.56963237      10.58270122
           6.40741943       6.27897755       6.05592514       5.72908098       5.29956200       4.74626851       3.99854061       3.11470365       1.53495974       2.99895772       4.06972515       5.17197947       6.07022536       6.78879695       7.48191937       8.29514496       8.75208114       9.02100443       9.37311058       9.64472529       9.82801919      10.01077820      10.13461589      10.19385770      10.21603996
           5.98763323       5.82673350       5.59444389       5.27893415       4.86237567       4.29930378       3.55283543       2.72414244       1.47654323       2.66065316       3.59694749       4.56252780       5.41490739       6.16226267       6.88029463       7.51355952       8.03220035       8.47175621       8.81810223       9.09670047       9.28050487       9.47070002       9.66105519       9.76236584       9.79806499
           5.60486479       5.44039779       5.22259881       4.91421824       4.50367321       3.92193250       3.20884034       2.45649225       1.32299620       2.44513409       3.30926828       4.16528697       4.94125925       5.66671478       6.34228321       6.99506161       7.54304804       7.98047637       8.33044204       8.60960137       8.83297553       9.01557390       9.19807525       9.31701677       9.36934631
           5.20125317       5.07215955       4.87417412       4.58059927       4.17690387       3.59931682       2.90036052       2.19403400       1.15099385       2.24718905       3.08300972       3.89698757       4.61187065       5.29102693       5.94468595       6.55556932       7.12201444       7.56470713       7.94324296       8.25411156       8.47166843       8.65747237       8.81996772       8.93534728       8.99620701
           4.75500373       4.68553910       4.51544990       4.23805509       3.85257055       3.28533183       2.58581028       1.93139026       1.01060357       2.05912884       2.86038082       3.66211679       4.39249918       5.03862491       5.66480092       6.26421159       6.81033763       7.25111184       7.60173224       7.92493385       8.15661271       8.34420338       8.50561988       8.62955570       8.68233164
           4.35810046       4.31454988       4.16772718       3.89191504       3.50826403       2.97250332       2.31928512       1.70792093       0.87234550       1.91597449       2.67407200       3.42716403       4.16886216       4.84559306       5.45949943       6.06527087       6.61558757       7.04570352       7.37451274       7.66362762       7.89741154       8.07066584       8.22748396       8.35380152       8.42028756
           4.03175162       3.98232525       3.84329345       3.56700906       3.18653681       2.69687193       2.09754678       1.52302654       0.74649652       1.78393562       2.52734531       3.24243885       3.94850996       4.65824619       5.30814987       5.90613296       6.45632833       6.87965239       7.19858382       7.47029228       7.69699543       7.86903524       8.01218832       8.12351448       8.19531630
           3.74393881       3.68206329       3.54066519       3.27076805       2.89853270       2.44284962       1.89382162       1.36059461       0.62962502       1.63606109       2.36999145       3.07281094       3.79542242       4.50300614       5.17059324       5.79285788       6.32022896       6.72099775       7.03300655       7.30575340       7.52995438       7.70260145       7.83815110       7.94378320       8.00475337
           3.49860890       3.42970978       3.26587075       2.98793452       2.65723125       2.23071899       1.71765028       1.21586433       0.54748357       1.48186053       2.18395022       2.91839157       3.69564604       4.41894891       5.08013019       5.68600290       6.18920073       6.58115086       6.88906034       7.15636637       7.38255983       7.55855168       7.69178354       7.79205705       7.84777487
           3.31018338       3.23279415       3.05700834       2.78803345       2.45930866       2.04980155       1.57614377       1.10981958       0.45619256       1.34195822       1.99260855       2.75059546       3.59917051       4.37023575       5.03550396       5.61171184       6.10189132       6.48122190       6.77358824       7.03587836       7.26089331       7.43848208       7.56904055       7.66380197       7.71850469
           3.13978596       3.05724910       2.87297336       2.61477703       2.28800239       1.90508035       1.47026597       1.02864646       0.39902711       1.22270658       1.83965613       2.57766536       3.45439726       4.29023881       4.98772613       5.56287459       6.03820051       6.40304556       6.68668575       6.93862519       7.15266923       7.33194180       7.46459351       7.55803769       7.60837129
           2.99724699       2.90544792       2.71824532       2.45734103       2.14893038       1.80506539       1.40383552       0.96893623       0.30185216       1.15340125       1.76871142       2.45767071       3.26487533       4.14686553       4.93028256       5.52153233       5.98955656       6.35359817       6.63174525       6.86647161       7.06242422       7.23600743       7.37395061       7.46963461       7.52145496
           2.88448811       2.78551890       2.58711363       2.32146183       2.05282845       1.75454850       1.36874576       0.90898075       0.18799329       1.08745687       1.73009259       2.43001230       3.18215016       4.00940779       4.81376685       5.44119547       5.93338744       6.31698168       6.59603177       6.82118094       7.00747015       7.16624905       7.30067647       7.39871889       7.45134892
           2.77564016       2.67890386       2.48185257       2.23643207       1.98901386       1.70555066       1.32829033       0.85578454       0.08198620       1.03800585       1.72886199       2.46690834       3.17179870       3.90909997       4.65596532       5.30301340       5.84599107       6.26499340       6.56474736       6.79150352       6.97744150       7.12990782       7.25049745       7.34486889       7.39795673
           2.67532714       2.58940523       2.41308140       2.18132407       1.94451410       1.66440123       1.29035939       0.82378111      -0.01650150       1.01756073       1.73604178       2.49418335       3.20187078       3.86546209       4.52678814       5.16216767       5.75258608       6.22015409       6.54161192       6.77535012       6.95700390       7.10471326       7.22338311       7.31212558       7.36185495
           2.62480296       2.54494430       2.38008589       2.16343128       1.92433098       1.63857567       1.26694981       0.79728282      -0.04864087       0.99472984       1.74317533       2.48838152       3.18954188       3.85165764       4.48391369       5.10481604       5.70334847       6.19558172       6.53329176       6.76791750       6.94562330       7.09117128       7.21143067       7.29618544       7.34315492
    INTERNAL  FACTOR  1.0
          12.97271351      12.98545888      13.00473165      13.02195295      13.03126601      13.03202424      13.02441947      13.01047071      12.99273727      12.97395917      12.94977465      12.88078890      12.68071669      12.73869250      12.80116773      12.86144820      12.92212877      12.98234759      13.04464136      13.10488554      13.15920910      13.21120818      13.27153402      13.33162780      13.37087041
          12.98390266      13.00172541      13.02827959      13.05150113      13.06512996      13.06632195      13.05284029      13.03107320      13.00932261      12.99452703      12.98595714      12.96749964      12.93135668      12.96044698      13.00525978      13.05292913      13.10098216      13.14111394      13.16331351      13.10222173      13.15467044      13.20705243      13.26322624      13.32225773      13.36200921
          13.00539328      13.03474571      13.08112950      13.12189693      13.14452820      13.14424074      13.11613696      13.07413102      13.03886380      13.01945459      13.02176098      13.03336249      13.04778900      13.07942712      13.11974032      13.16386698      13.20782235      13.24681915      13.27884813      13.29031093      13.32427577      13.36587217      13.40238962      13.41499264      13.33554458
          13.03743142      13.08621272      13.17916580      13.45495417      13.51934204      13.50144762      13.40397125      13.13687433      13.07673756      13.04592308      13.04994136      13.07334599      13.10520955      13.14415079      13.18510728      13.23061569      13.27610240      13.31981823      13.35777644      13.38842965      13.42075726      13.44378845      13.44614255      13.41013286      13.28890188
          13.06599696      13.13166529      13.47340205      13.62418360      13.66858113      13.63560130      13.50835277      13.18414064      13.10772093      13.06754451      13.06537036      13.09304392      13.13055722      13.17377517      13.22098741      13.26780679      13.31560637      13.36087391      13.39913292      13.43099728      13.45590524      13.46109193      13.43008692      13.35091621      13.24378009
          13.06879340      13.14818569      13.54113084      13.68864180      13.72767538      13.68991620      13.55149555      13.20934215      13.12490193      13.07708170      13.06844908      13.09260504      13.13119663      13.17841843      13.22978984      13.27827740      13.32330296      13.36510730      13.40266125      13.43300297      13.44979981      13.43780823      13.36771205      13.18758805      13.19477775
          13.02753013      13.11588454      13.55865055      13.71335865      13.75103447      13.71233634      13.57261002      13.22044805      13.12938373      13.07510189      13.05794682      13.07653984      13.11223771      13.15745794      13.21009342      13.25789337      13.29895937      13.33452338      13.36901774      13.39448381      13.40108616      13.37797719      13.29859227      13.12833278      13.13745888
          12.94354433      13.03538224      13.53385901      13.71039129      13.75398194      13.71809856      13.58464797      13.22974578      13.12747894      13.06127640      13.03392348      13.04541103      13.07636573      13.11606150      13.16262754      13.20501340      13.24266086      13.27129500      13.29582074      13.31106377      13.30522803      13.27903499      13.20313370      13.05231422      13.06067435
          12.83142458      12.92232322      13.44696846      13.66334417      13.73219576      13.71571274      13.60061394      13.25606663      13.12269738      13.04010787      12.99986256      12.99955143      13.02206900      13.05652704      13.09518554      13.12925324      13.15618964      13.17405092      13.18794669      13.19069311      13.17568939      13.13922487      13.06334371      12.95964516      12.97006586
          12.67929519      12.76816978      13.27323102      13.56441879      13.68075547      13.70204028      13.63577377      13.45189383      13.11614665      13.01136800      12.95191781      12.93940105      12.95148295      12.97402320      12.99846085      13.02185137      13.03342577      13.03032048      13.03744804      13.03779087      13.01523220      12.94800925      12.83248962      12.85498507      12.87338805
          12.48033821      12.55647428      12.72130608      13.35131966      13.57591825      13.65773283      13.64512377      13.51666356      13.12921234      12.96962434      12.88256413      12.85826201      12.86005154      12.86515119      12.86874777      12.86772730      12.84670891      12.80514411      12.81471436      12.83109177      12.81875103      12.71818991      12.73503685      12.75169731      12.76500840
          12.25992760      12.33028939      12.48599623      13.09238832      13.43082060      13.59285807      13.64341870      13.59006683      13.36665496      12.88487129      12.78401688      12.74858339      12.73667383      12.72050135      12.69420350      12.66849533      12.59951910      12.46466160      12.51168278      12.55985510      12.59600967      12.62237576      12.63934533      12.65075246      12.65649315
          11.98980008      12.07332151      12.22927137      12.44544367      13.20660958      13.49560853      13.59828138      13.58246017      13.38893372      12.76914989      12.65312526      12.60034723      12.56577314      12.51396444      12.43941769      12.41787429      12.31099701      12.36771182      12.41840656      12.46403181      12.49818894      12.52409421      12.54377067      12.55587138      12.56204968
          11.59626851      11.73949394      11.93255907      12.16280169      12.96975801      13.34185099      13.50204389      13.50545258      13.30883027      12.59104508      12.45474979      12.38629079      12.33290008      12.24018486      12.02406272      12.09355901      12.18027056      12.25427528      12.31045573      12.35989947      12.40024156      12.42794509      12.44708914      12.45898936      12.46535908
          10.91638890      11.28090069      11.55020781      11.79429537      12.54457783      13.04834548      13.27998322      13.30237366      13.10267365      12.31725360      12.16159830      12.07767126      12.01393231      11.97416211      11.87450566      11.95071811      12.03398487      12.11528125      12.18326363      12.24359204      12.29197768      12.32580956      12.34629356      12.35740596      12.36302764
          10.64202646      10.66913329      11.03912552      11.23735561      11.40950059      12.39876503      12.74630121      12.76909027      12.61313816      11.90479222      11.74812282      11.60919670      11.41955818      11.56143692      11.69344756      11.79947156      11.88780813      11.96409414      12.03751229      12.10626440      12.16452678      12.20772993      12.23697003      12.25166727      12.25845018
          10.30848370      10.31199281      10.33217163      10.36941326      10.43009043      10.88295724      11.08265712      11.10455733      11.10067517      11.15591641      11.11787736      10.94611735      11.11117634      11.28773944      11.53391991      11.71458108      11.81318985      11.80166993      11.87586136      11.94495062      12.01011699      12.06648593      12.10479108      12.12714918      12.13602771
           9.89824423       9.89388188       9.89091797       9.92290300       9.96275927       9.98425129       9.98109994       9.98689645      10.04715278      10.17657665      10.36295376      10.57073038      10.79088611      10.98291514      11.17098084      11.50356099      11.66127789      11.71239088      11.68645266      11.75894916      11.82478890      11.89111988      11.94367221      11.98074309      11.99502788
           9.44222355       9.42776715       9.40658435       9.40892826       9.40626449       9.40303023       9.39943847       9.41051981       9.48158706       9.63652194       9.87533430      10.10295466      10.33717730      10.68387984      10.95210061      11.21524727      11.43022765      11.53135162      11.55883006      11.54240519      11.62329079      11.69705156      11.76379167      11.81847398      11.84683788
           8.99498847       8.95160696       8.92084896       8.89622016       8.85999285       8.82507519       8.79466140       8.74688979       8.79087580       8.98194135       9.25684306       9.54791356       9.76867167      10.04021583      10.33062954      10.59643136      11.09526278      11.26598453      11.32450608      11.35598013      11.40247775      11.49819567      11.57877752      11.64319062      11.68418856
           8.51511401       8.45498651       8.41491301       8.37738959       8.31389022       8.18832834       8.00201615       7.85834872       7.83980436       8.11235451       8.49714127       8.89897304       9.20216804       9.49517125      10.04740525      10.40987572      10.75979071      10.92860957      10.99021246      11.01157453      11.15731377      11.28296229      11.37885295      11.45004758      11.49699067
           7.95208045       7.90294954       7.83337634       7.73572883       7.58975845       7.31286252       6.91764545       6.55311141       6.33667196       6.85281763       7.49120352       8.06025721       8.50688763       9.08261796       9.58697999       9.95927214      10.29453289      10.47470713      10.53988904      10.73972776      10.90407464      11.04251270      11.13888907      11.20577983      11.24342229
           7.36830718       7.32407147       7.20387330       6.99182344       6.68902554       6.24597489       5.65206088       4.83274383       2.02490543       4.91845470       6.12363691       7.04511608       7.67883922       8.19070337       8.94103861       9.41777449       9.72569836       9.88886421      10.19684270      10.44361945      10.62975722      10.76695117      10.85428964      10.90533611      10.92262914
           6.85119300       6.77372565       6.59753611       6.29586048       5.87866462       5.35140916       4.64563246       3.74190188       1.62726912       3.63583350       4.86055775       5.99168794       6.81737329       7.48095830       8.09641867       8.84729619       9.08770557       9.47838715       9.82781721      10.09786619      10.30298003      10.44469219      10.52498034      10.56872921      10.58187773
           6.40586016       6.27759078       6.05450740       5.72790008       5.29844553       4.74504050       3.99726616       3.11381343       1.57956952       2.99777188       4.06757004       5.16939718       6.06825132       6.78671049       7.47910027       8.29442187       8.75137327       9.01940438       9.37138925       9.64303470       9.82644456      10.00918992      10.13360942      10.19283595      10.21514981
           5.98595866       5.82542410       5.59324722       5.27780078       4.86140151       4.29816892       3.55168778       2.72342891       1.51036349       2.65981045       3.59538560       4.56075977       5.41331758       6.16013398       6.87773930       7.51106246       8.02974157       8.47004073       8.81608645       9.09503807       9.27942162       9.46952199       9.65997584       9.76131514       9.79707872
           5.60255824       5.43912333       5.22143454       4.91307481       4.50255456       3.92078451       3.20781317       2.45580873       1.35509208       2.44429836       3.30792226       4.16384933       4.93972214       5.66477189       6.34022524       6.99269820       7.54117988       7.97883301       8.32896563       8.60852152       8.83211636       9.01462498       9.19701015       9.31604398       9.36860834
           5.19780457       5.07047465       4.87275107       4.57924763       4.17533692       3.59787050       2.89913813       2.19328679       1.18162769       2.24631190       3.08167849       3.89570805       4.61054883       5.28935032       5.94295590       6.55366396       7.12017703       7.56330860       7.94184774       8.25322515       8.47091338       8.65673719       8.81909487       8.93456940       8.99553608
           4.75204313       4.68354539       4.51370317       4.23658419       3.85077541       3.28313202       2.58433779       1.93053596       1.03778596       2.05827285       2.85909478       3.66079356       4.39123831       5.03735685       5.66335354       6.26282152       6.80906798       7.25010670       7.60079341       7.92402116       8.15591801       8.34341157       8.50489843       8.62890016       8.68178422