BEGIN options
  SAVE_SPECIFIC_DISCHARGE
  K33OVERK
END options

BEGIN griddata
  icelltype
    INTERNAL  FACTOR  1
    0  0  0  0  0  0  0  0  0  0  0  0  0  0  0  0  0  0  0  0  0  0  0  0  0
    0  0  0  0  0  0  0  0  0  0  0  0  0  0  0  0  0  0  0  0  0  0  0  0  0
    0  0  0  0  0  0  0  0  0  0  0  0  0  0  0  0  0  0  0  0  0  0  0  0  0
    0  0  0  0  0  0  0  0  0  0  0  0  0  0  0  0  0  0  0  0  0  0  0  0  0
    0  0  0  0  0  0  0  0  0  0  0  0  0  0  0  0  0  0  0  0  0  0  0  0  0
    0  0  0  0  0  0  0  0  0  0  0  0  0  0  0  0  0  0  0  0  0  0  0  0  0
    0  0  0  0  0  0  0  0  0  0  0  0  0  0  0  0  0  0  0  0  0  0  0  0  0
    0  0  0  0  0  0  0  0  0  0  0  0  0  0  0  0  0  0  0  0  0  0  0  0  0
    0  0  0  0  0  0  0  0  0  0  0  0  0  0  0  0  0  0  0  0  0  0  0  0  0
    0  0  0  0  0  0  0  0  0  0  0  0  0  0  0  0  0  0  0  0  0  0  0  0  0
    0  0  0  0  0  0  0  0  0  0  0  0  0  0  0  0  0  0  0  0  0  0  0  0  0
    0  0  0  0  0  0  0  0  0  0  0  0  0  0  0  0  0  0  0  0  0  0  0  0  0
    0  0  0  0  0  0  0  0  0  0  0  0  0  0  0  0  0  0  0  0  0  0  0  0  0
    0  0  0  0  0  0  0  0  0  0  0  0  0  0  0  0  0  0  0  0  0  0  0  0  0
    0  0  0  0  0  0  0  0  0  0  0  0  0  0  0  0  0  0  0  0  0  0  0  0  0
    0  0  0  0  0  0  0  0  0  0  0  0  0  0  0  0  0  0  0  0  0  0  0  0  0
    0  0  0  0  0  0  0  0  0  0  0  0  0  0  0  0  0  0  0  0  0  0  0  0  0
    0  0  0  0  0  0  0  0  0  0  0  0  0  0  0  0  0  0  0  0  0  0  0  0  0
    0  0  0  0  0  0  0  0  0  0  0  0  0  0  0  0  0  0  0  0  0  0  0  0  0
    0  0  0  0  0  0  0  0  0  0  0  0  0  0  0  0  0  0  0  0  0  0  0  0  0
    0  0  0  0  0  0  0  0  0  0  0  0  0  0  0  0  0  0  0  0  0  0  0  0  0
    0  0  0  0  0  0  0  0  0  0  0  0  0  0  0  0  0  0  0  0  0  0  0  0  0
    0  0  0  0  0  0  0  0  0  0  0  0  0  0  0  0  0  0  0  0  0  0  0  0  0
    0  0  0  0  0  0  0  0  0  0  0  0  0  0  0  0  0  0  0  0  0  0  0  0  0
    0  0  0  0  0  0  0  0  0  0  0  0  0  0  0  0  0  0  0  0  0  0  0  0  0
    0  0  0  0  0  0  0  0  0  0  0  0  0  0  0  0  0  0  0  0  0  0  0  0  0
    0  0  0  0  0  0  0  0  0  0  0  0  0  0  0  0  0  0  0  0  0  0  0  0  0
    0  0  0  0  0  0  0  0  0  0  0  0  0  0  0  0  0  0  0  0  0  0  0  0  0
    0  0  0  0  0  0  0  0  0  0  0  0  0  0  0  0  0  0  0  0  0  0  0  0  0
    0  0  0  0  0  0  0  0  0  0  0  0  0  0  0  0  0  0  0  0  0  0  0  0  0
    0  0  0  0  0  0  0  0  0  0  0  0  0  0  0  0  0  0  0  0  0  0  0  0  0
    0  0  0  0  0  0  0  0  0  0  0  0  0  0  0  0  0  0  0  0  0  0  0  0  0
    0  0  0  0  0  0  0  0  0  0  0  0  0  0  0  0  0  0  0  0  0  0  0  0  0
    0  0  0  0  0  0  0  0  0  0  0  0  0  0  0  0  0  0  0  0  0  0  0  0  0
    0  0  0  0  0  0  0  0  0  0  0  0  0  0  0  0  0  0  0  0  0  0  0  0  0
    0  0  0  0  0  0  0  0  0  0  0  0  0  0  0  0  0  0  0  0  0  0  0  0  0
    0  0  0  0  0  0  0  0  0  0  0  0  0  0  0  0  0  0  0  0  0  0  0  0  0
    0  0  0  0  0  0  0  0  0  0  0  0  0  0  0  0  0  0  0  0  0  0  0  0  0
    0  0  0  0  0  0  0  0  0  0  0  0  0  0  0  0  0  0  0  0  0  0  0  0  0
    0  0  0  0  0  0  0  0  0  0  0  0  0  0  0  0  0  0  0  0  0  0  0  0  0
    0  0  0  0  0  0  0  0  0  0  0  0  0  0  0  0  0  0  0  0  0  0  0  0  0
    0  0  0  0  0  0  0  0  0  0  0  0  0  0  0  0  0  0  0  0  0  0  0  0  0
    0  0  0  0  0  0  0  0  0  0  0  0  0  0  0  0  0  0  0  0  0  0  0  0  0
    0  0  0  0  0  0  0  0  0  0  0  0  0  0  0  0  0  0  0  0  0  0  0  0  0
    0  0  0  0  0  0  0  0  0  0  0  0  0  0  0  0  0  0  0  0  0  0  0  0  0
    0  0  0  0  0  0  0  0  0  0  0  0  0  0  0  0  0  0  0  0  0  0  0  0  0
    0  0  0  0  0  0  0  0  0  0  0  0  0  0  0  0  0  0  0  0  0  0  0  0  0
    0  0  0  0  0  0  0  0  0  0  0  0  0  0  0  0  0  0  0  0  0  0  0  0  0
    0  0  0  0  0  0  0  0  0  0  0  0  0  0  0  0  0  0  0  0  0  0  0  0  0
    0  0  0  0  0  0  0  0  0  0  0  0  0  0  0  0  0  0  0  0  0  0  0  0  0
    0  0  0  0  0  0  0  0  0  0  0  0  0  0  0  0  0  0  0  0  0  0  0  0  0
    0  0  0  0  0  0  0  0  0  0  0  0  0  0  0  0  0  0  0  0  0  0  0  0  0
    0  0  0  0  0  0  0  0  0  0  0  0  0  0  0  0  0  0  0  0  0  0  0  0  0
    0  0  0  0  0  0  0  0  0  0  0  0  0  0  0  0  0  0  0  0  0  0  0  0  0
    0  0  0  0  0  0  0  0  0  0  0  0  0  0  0  0  0  0  0  0  0  0  0  0  0
    0  0  0  0  0  0  0  0  0  0  0  0  0  0  0  0  0  0  0  0  0  0  0  0  0
    0  0  0  0  0  0  0  0  0  0  0  0  0  0  0  0  0  0  0  0  0  0  0  0  0
    0  0  0  0  0  0  0  0  0  0  0  0  0  0  0  0  0  0  0  0  0  0  0  0  0
    0  0  0  0  0  0  0  0  0  0  0  0  0  0  0  0  0  0  0  0  0  0  0  0  0
    0  0  0  0  0  0  0  0  0  0  0  0  0  0  0  0  0  0  0  0  0  0  0  0  0
    0  0  0  0  0  0  0  0  0  0  0  0  0  0  0  0  0  0  0  0  0  0  0  0  0
    0  0  0  0  0  0  0  0  0  0  0  0  0  0  0  0  0  0  0  0  0  0  0  0  0
    0  0  0  0  0  0  0  0  0  0  0  0  0  0  0  0  0  0  0  0  0  0  0  0  0
    0  0  0  0  0  0  0  0  0  0  0  0  0  0  0  0  0  0  0  0  0  0  0  0  0
    0  0  0  0  0  0  0  0  0  0  0  0  0  0  0  0  0  0  0  0  0  0  0  0  0
    0  0  0  0  0  0  0  0  0  0  0  0  0  0  0  0  0  0  0  0  0  0  0  0  0
    0  0  0  0  0  0  0  0  0  0  0  0  0  0  0  0  0  0  0  0  0  0  0  0  0
    0  0  0  0  0  0  0  0  0  0  0  0  0  0  0  0  0  0  0  0  0  0  0  0  0
    0  0  0  0  0  0  0  0  0  0  0  0  0  0  0  0  0  0  0  0  0  0  0  0  0
    0  0  0  0  0  0  0  0  0  0  0  0  0  0  0  0  0  0  0  0  0  0  0  0  0
    0  0  0  0  0  0  0  0  0  0  0  0  0  0  0  0  0  0  0  0  0  0  0  0  0
    0  0  0  0  0  0  0  0  0  0  0  0  0  0  0  0  0  0  0  0  0  0  0  0  0
    0  0  0  0  0  0  0  0  0  0  0  0  0  0  0  0  0  0  0  0  0  0  0  0  0
    0  0  0  0  0  0  0  0  0  0  0  0  0  0  0  0  0  0  0  0  0  0  0  0  0
    0  0  0  0  0  0  0  0  0  0  0  0  0  0  0  0  0  0  0  0  0  0  0  0  0
    0  0  0  0  0  0  0  0  0  0  0  0  0  0  0  0  0  0  0  0  0  0  0  0  0
    0  0  0  0  0  0  0  0  0  0  0  0  0  0  0  0  0  0  0  0  0  0  0  0  0
    0  0  0  0  0  0  0  0  0  0  0  0  0  0  0  0  0  0  0  0  0  0  0  0  0
    0  0  0  0  0  0  0  0  0  0  0  0  0  0  0  0  0  0  0  0  0  0  0  0  0
    0  0  0  0  0  0  0  0  0  0  0  0  0  0  0  0  0  0  0  0  0  0  0  0  0
    0  0  0  0  0  0  0  0  0  0  0  0  0  0  0  0  0  0  0  0  0  0  0  0  0
    0  0  0  0  0  0  0  0  0  0  0  0  0  0  0  0  0  0  0  0  0  0  0  0  0
    0  0  0  0  0  0  0  0  0  0  0  0  0  0  0  0  0  0  0  0  0  0  0  0  0
    0  0  0  0  0  0  0  0  0  0  0  0  0  0  0  0  0  0  0  0  0  0  0  0  0
    0  0  0  0  0  0  0  0  0  0  0  0  0  0  0  0  0  0  0  0  0  0  0  0  0
    0  0  0  0  0  0  0  0  0  0  0  0  0  0  0  0  0  0  0  0  0  0  0  0  0
    0  0  0  0  0  0  0  0  0  0  0  0  0  0  0  0  0  0  0  0  0  0  0  0  0
    0  0  0  0  0  0  0  0  0  0  0  0  0  0  0  0  0  0  0  0  0  0  0  0  0
    0  0  0  0  0  0  0  0  0  0  0  0  0  0  0  0  0  0  0  0  0  0  0  0  0
    0  0  0  0  0  0  0  0  0  0  0  0  0  0  0  0  0  0  0  0  0  0  0  0  0
    0  0  0  0  0  0  0  0  0  0  0  0  0  0  0  0  0  0  0  0  0  0  0  0  0
    0  0  0  0  0  0  0  0  0  0  0  0  0  0  0  0  0  0  0  0  0  0  0  0  0
    0  0  0  0  0  0  0  0  0  0  0  0  0  0  0  0  0  0  0  0  0  0  0  0  0
    0  0  0  0  0  0  0  0  0  0  0  0  0  0  0  0  0  0  0  0  0  0  0  0  0
    0  0  0  0  0  0  0  0  0  0  0  0  0  0  0  0  0  0  0  0  0  0  0  0  0
    0  0  0  0  0  0  0  0  0  0  0  0  0  0  0  0  0  0  0  0  0  0  0  0  0
    0  0  0  0  0  0  0  0  0  0  0  0  0  0  0  0  0  0  0  0  0  0  0  0  0
    0  0  0  0  0  0  0  0  0  0  0  0  0  0  0  0  0  0  0  0  0  0  0  0  0
    0  0  0  0  0  0  0  0  0  0  0  0  0  0  0  0  0  0  0  0  0  0  0  0  0
    0  0  0  0  0  0  0  0  0  0  0  0  0  0  0  0  0  0  0  0  0  0  0  0  0
    0  0  0  0  0  0  0  0  0  0  0  0  0  0  0  0  0  0  0  0  0  0  0  0  0
    0  0  0  0  0  0  0  0  0  0  0  0  0  0  0  0  0  0  0  0  0  0  0  0  0
    0  0  0  0  0  0  0  0  0  0  0  0  0  0  0  0  0  0  0  0  0  0  0  0  0
    0  0  0  0  0  0  0  0  0  0  0  0  0  0  0  0  0  0  0  0  0  0  0  0  0
    0  0  0  0  0  0  0  0  0  0  0  0  0  0  0  0  0  0  0  0  0  0  0  0  0
    0  0  0  0  0  0  0  0  0  0  0  0  0  0  0  0  0  0  0  0  0  0  0  0  0
    0  0  0  0  0  0  0  0  0  0  0  0  0  0  0  0  0  0  0  0  0  0  0  0  0
    0  0  0  0  0  0  0  0  0  0  0  0  0  0  0  0  0  0  0  0  0  0  0  0  0
    0  0  0  0  0  0  0  0  0  0  0  0  0  0  0  0  0  0  0  0  0  0  0  0  0
    0  0  0  0  0  0  0  0  0  0  0  0  0  0  0  0  0  0  0  0  0  0  0  0  0
    0  0  0  0  0  0  0  0  0  0  0  0  0  0  0  0  0  0  0  0  0  0  0  0  0
    0  0  0  0  0  0  0  0  0  0  0  0  0  0  0  0  0  0  0  0  0  0  0  0  0
    0  0  0  0  0  0  0  0  0  0  0  0  0  0  0  0  0  0  0  0  0  0  0  0  0
    0  0  0  0  0  0  0  0  0  0  0  0  0  0  0  0  0  0  0  0  0  0  0  0  0
    0  0  0  0  0  0  0  0  0  0  0  0  0  0  0  0  0  0  0  0  0  0  0  0  0
    0  0  0  0  0  0  0  0  0  0  0  0  0  0  0  0  0  0  0  0  0  0  0  0  0
    0  0  0  0  0  0  0  0  0  0  0  0  0  0  0  0  0  0  0  0  0  0  0  0  0
    0  0  0  0  0  0  0  0  0  0  0  0  0  0  0  0  0  0  0  0  0  0  0  0  0
    0  0  0  0  0  0  0  0  0  0  0  0  0  0  0  0  0  0  0  0  0  0  0  0  0
    0  0  0  0  0  0  0  0  0  0  0  0  0  0  0  0  0  0  0  0  0  0  0  0  0
    0  0  0  0  0  0  0  0  0  0  0  0  0  0  0  0  0  0  0  0  0  0  0  0  0
    0  0  0  0  0  0  0  0  0  0  0  0  0  0  0  0  0  0  0  0  0  0  0  0  0
    0  0  0  0  0  0  0  0  0  0  0  0  0  0  0  0  0  0  0  0  0  0  0  0  0
    0  0  0  0  0  0  0  0  0  0  0  0  0  0  0  0  0  0  0  0  0  0  0  0  0
    0  0  0  0  0  0  0  0  0  0  0  0  0  0  0  0  0  0  0  0  0  0  0  0  0
    0  0  0  0  0  0  0  0  0  0  0  0  0  0  0  0  0  0  0  0  0  0  0  0  0
    0  0  0  0  0  0  0  0  0  0  0  0  0  0  0  0  0  0  0  0  0  0  0  0  0
    0  0  0  0  0  0  0  0  0  0  0  0  0  0  0  0  0  0  0  0  0  0  0  0  0
    0  0  0  0  0  0  0  0  0  0  0  0  0  0  0  0  0  0  0  0  0  0  0  0  0
    0  0  0  0  0  0  0  0  0  0  0  0  0  0  0  0  0  0  0  0  0  0  0  0  0
    0  0  0  0  0  0  0  0  0  0  0  0  0  0  0  0  0  0  0  0  0  0  0  0  0
    0  0  0  0  0  0  0  0  0  0  0  0  0  0  0  0  0  0  0  0  0  0  0  0  0
    0  0  0  0  0  0  0  0  0  0  0  0  0  0  0  0  0  0  0  0  0  0  0  0  0
    0  0  0  0  0  0  0  0  0  0  0  0  0  0  0  0  0  0  0  0  0  0  0  0  0
    0  0  0  0  0  0  0  0  0  0  0  0  0  0  0  0  0  0  0  0  0  0  0  0  0
    0  0  0  0  0  0  0  0  0  0  0  0  0  0  0  0  0  0  0  0  0  0  0  0  0
    0  0  0  0  0  0  0  0  0  0  0  0  0  0  0  0  0  0  0  0  0  0  0  0  0
    0  0  0  0  0  0  0  0  0  0  0  0  0  0  0  0  0  0  0  0  0  0  0  0  0
    0  0  0  0  0  0  0  0  0  0  0  0  0  0  0  0  0  0  0  0  0  0  0  0  0
    0  0  0  0  0  0  0  0  0  0  0  0  0  0  0  0  0  0  0  0  0  0  0  0  0
    0  0  0  0  0  0  0  0  0  0  0  0  0  0  0  0  0  0  0  0  0  0  0  0  0
    0  0  0  0  0  0  0  0  0  0  0  0  0  0  0  0  0  0  0  0  0  0  0  0  0
    0  0  0  0  0  0  0  0  0  0  0  0  0  0  0  0  0  0  0  0  0  0  0  0  0
    0  0  0  0  0  0  0  0  0  0  0  0  0  0  0  0  0  0  0  0  0  0  0  0  0
    0  0  0  0  0  0  0  0  0  0  0  0  0  0  0  0  0  0  0  0  0  0  0  0  0
    0  0  0  0  0  0  0  0  0  0  0  0  0  0  0  0  0  0  0  0  0  0  0  0  0
    0  0  0  0  0  0  0  0  0  0  0  0  0  0  0  0  0  0  0  0  0  0  0  0  0
    0  0  0  0  0  0  0  0  0  0  0  0  0  0  0  0  0  0  0  0  0  0  0  0  0
    0  0  0  0  0  0  0  0  0  0  0  0  0  0  0  0  0  0  0  0  0  0  0  0  0
    0  0  0  0  0  0  0  0  0  0  0  0  0  0  0  0  0  0  0  0  0  0  0  0  0
    0  0  0  0  0  0  0  0  0  0  0  0  0  0  0  0  0  0  0  0  0  0  0  0  0
    0  0  0  0  0  0  0  0  0  0  0  0  0  0  0  0  0  0  0  0  0  0  0  0  0
    0  0  0  0  0  0  0  0  0  0  0  0  0  0  0  0  0  0  0  0  0  0  0  0  0
    0  0  0  0  0  0  0  0  0  0  0  0  0  0  0  0  0  0  0  0  0  0  0  0  0
    0  0  0  0  0  0  0  0  0  0  0  0  0  0  0  0  0  0  0  0  0  0  0  0  0
    0  0  0  0  0  0  0  0  0  0  0  0  0  0  0  0  0  0  0  0  0  0  0  0  0
    0  0  0  0  0  0  0  0  0  0  0  0  0  0  0  0  0  0  0  0  0  0  0  0  0
    0  0  0  0  0  0  0  0  0  0  0  0  0  0  0  0  0  0  0  0  0  0  0  0  0
    0  0  0  0  0  0  0  0  0  0  0  0  0  0  0  0  0  0  0  0  0  0  0  0  0
    0  0  0  0  0  0  0  0  0  0  0  0  0  0  0  0  0  0  0  0  0  0  0  0  0
    0  0  0  0  0  0  0  0  0  0  0  0  0  0  0  0  0  0  0  0  0  0  0  0  0
    0  0  0  0  0  0  0  0  0  0  0  0  0  0  0  0  0  0  0  0  0  0  0  0  0
    0  0  0  0  0  0  0  0  0  0  0  0  0  0  0  0  0  0  0  0  0  0  0  0  0
    0  0  0  0  0  0  0  0  0  0  0  0  0  0  0  0  0  0  0  0  0  0  0  0  0
    0  0  0  0  0  0  0  0  0  0  0  0  0  0  0  0  0  0  0  0  0  0  0  0  0
    0  0  0  0  0  0  0  0  0  0  0  0  0  0  0  0  0  0  0  0  0  0  0  0  0
    0  0  0  0  0  0  0  0  0  0  0  0  0  0  0  0  0  0  0  0  0  0  0  0  0
    0  0  0  0  0  0  0  0  0  0  0  0  0  0  0  0  0  0  0  0  0  0  0  0  0
    0  0  0  0  0  0  0  0  0  0  0  0  0  0  0  0  0  0  0  0  0  0  0  0  0
    0  0  0  0  0  0  0  0  0  0  0  0  0  0  0  0  0  0  0  0  0  0  0  0  0
    0  0  0  0  0  0  0  0  0  0  0  0  0  0  0  0  0  0  0  0  0  0  0  0  0
    0  0  0  0  0  0  0  0  0  0  0  0  0  0  0  0  0  0  0  0  0  0  0  0  0
    0  0  0  0  0  0  0  0  0  0  0  0  0  0  0  0  0  0  0  0  0  0  0  0  0
    0  0  0  0  0  0  0  0  0  0  0  0  0  0  0  0  0  0  0  0  0  0  0  0  0
    0  0  0  0  0  0  0  0  0  0  0  0  0  0  0  0  0  0  0  0  0  0  0  0  0
    0  0  0  0  0  0  0  0  0  0  0  0  0  0  0  0  0  0  0  0  0  0  0  0  0
    0  0  0  0  0  0  0  0  0  0  0  0  0  0  0  0  0  0  0  0  0  0  0  0  0
    0  0  0  0  0  0  0  0  0  0  0  0  0  0  0  0  0  0  0  0  0  0  0  0  0
    0  0  0  0  0  0  0  0  0  0  0  0  0  0  0  0  0  0  0  0  0  0  0  0  0
    0  0  0  0  0  0  0  0  0  0  0  0  0  0  0  0  0  0  0  0  0  0  0  0  0
    0  0  0  0  0  0  0  0  0  0  0  0  0  0  0  0  0  0  0  0  0  0  0  0  0
    0  0  0  0  0  0  0  0  0  0  0  0  0  0  0  0  0  0  0  0  0  0  0  0  0
    0  0  0  0  0  0  0  0  0  0  0  0  0  0  0  0  0  0  0  0  0  0  0  0  0
    0  0  0  0  0  0  0  0  0  0  0  0  0  0  0  0  0  0  0  0  0  0  0  0  0
    0  0  0  0  0  0  0  0  0  0  0  0  0  0  0  0  0  0  0  0  0  0  0  0  0
    0  0  0  0  0  0  0  0  0  0  0  0  0  0  0  0  0  0  0  0  0  0  0  0  0
    0  0  0  0  0  0  0  0  0  0  0  0  0  0  0  0  0  0  0  0  0  0  0  0  0
    0  0  0  0  0  0  0  0  0  0  0  0  0  0  0  0  0  0  0  0  0  0  0  0  0
    0  0  0  0  0  0  0  0  0  0  0  0  0  0  0  0  0  0  0  0  0  0  0  0  0
    0  0  0  0  0  0  0  0  0  0  0  0  0  0  0  0  0  0  0  0  0  0  0  0  0
    0  0  0  0  0  0  0  0  0  0  0  0  0  0  0  0  0  0  0  0  0  0  0  0  0
    0  0  0  0  0  0  0  0  0  0  0  0  0  0  0  0  0  0  0  0  0  0  0  0  0
    0  0  0  0  0  0  0  0  0  0  0  0  0  0  0  0  0  0  0  0  0  0  0  0  0
    0  0  0  0  0  0  0  0  0  0  0  0  0  0  0  0  0  0  0  0  0  0  0  0  0
    0  0  0  0  0  0  0  0  0  0  0  0  0  0  0  0  0  0  0  0  0  0  0  0  0
    0  0  0  0  0  0  0  0  0  0  0  0  0  0  0  0  0  0  0  0  0  0  0  0  0
    0  0  0  0  0  0  0  0  0  0  0  0  0  0  0  0  0  0  0  0  0  0  0  0  0
    0  0  0  0  0  0  0  0  0  0  0  0  0  0  0  0  0  0  0  0  0  0  0  0  0
    0  0  0  0  0  0  0  0  0  0  0  0  0  0  0  0  0  0  0  0  0  0  0  0  0
    0  0  0  0  0  0  0  0  0  0  0  0  0  0  0  0  0  0  0  0  0  0  0  0  0
  k  LAYERED
    INTERNAL  FACTOR  1.0
         367.45135000     367.45135000     367.45135000     367.45135000     367.45135000     367.45135000     367.45135000     367.45135000     367.45135000     367.45135000     367.45135000     367.45135000     367.45135000     367.45135000     367.45135000     367.45135000     367.45135000     367.45135000     367.45135000     367.45135000     367.45135000     367.45135000     367.45135000     367.45135000     367.45135000
         367.45135000     367.45135000     367.45135000     367.45135000     367.45135000     367.45135000     367.45135000     367.45135000     367.45135000     367.45135000     367.45135000     367.45135000     367.45135000     367.45135000     367.45135000     367.45135000     367.45135000     367.45135000     367.45135000     367.45135000     367.45135000     367.45135000     367.45135000     367.45135000     367.45135000
         367.45135000     367.45135000     367.45135000     367.45135000     367.45135000     367.45135000     367.45135000     367.45135000     367.45135000     367.45135000     367.45135000     367.45135000     367.45135000     367.45135000     367.45135000     367.45135000     367.45135000     367.45135000     367.45135000     367.45135000     367.45135000     367.45135000     367.45135000     367.45135000     367.45135000
         367.45135000     367.45135000     367.45135000  2.00000000E+06  2.00000000E+06  2.00000000E+06  2.00000000E+06     367.45135000     367.45135000     367.45135000     367.45135000     367.45135000     367.45135000     367.45135000     367.45135000     367.45135000     367.45135000     367.45135000     367.45135000     367.45135000     367.45135000     367.45135000     367.45135000     367.45135000     367.45135000
         367.45135000     367.45135000  2.00000000E+06  2.00000000E+06  2.00000000E+06  2.00000000E+06  2.00000000E+06     367.45135000     367.45135000     367.45135000     367.45135000     367.45135000     367.45135000     367.45135000     367.45135000     367.45135000     367.45135000     367.45135000     367.45135000     367.45135000     367.45135000     367.45135000     367.45135000     367.45135000     367.45135000
         367.45135000     367.45135000  2.00000000E+06  2.00000000E+06  2.00000000E+06  2.00000000E+06  2.00000000E+06     367.45135000     367.45135000     367.45135000     367.45135000     367.45135000     367.45135000     367.45135000     367.45135000     367.45135000     367.45135000     367.45135000     367.45135000     367.45135000     367.45135000     367.45135000     367.45135000     367.45135000     367.45135000
         367.45135000     367.45135000  2.00000000E+06  2.00000000E+06  2.00000000E+06  2.00000000E+06  2.00000000E+06     367.45135000     367.45135000     367.45135000     367.45135000     367.45135000     367.45135000     367.45135000     367.45135000     367.45135000     367.45135000     367.45135000     367.45135000     367.45135000     367.45135000     367.45135000     367.45135000     367.45135000     367.45135000
         367.45135000     367.45135000  2.00000000E+06  2.00000000E+06  2.00000000E+06  2.00000000E+06  2.00000000E+06     367.45135000     367.45135000     367.45135000     367.45135000     367.45135000     367.45135000     367.45135000     367.45135000     367.45135000     367.45135000     367.45135000     367.45135000     367.45135000     367.45135000     367.45135000     367.45135000     367.45135000     367.45135000
         367.45135000     367.45135000  2.00000000E+06  2.00000000E+06  2.00000000E+06  2.00000000E+06  2.00000000E+06     367.45135000     367.45135000     367.45135000     367.45135000     367.45135000     367.45135000     367.45135000     367.45135000     367.45135000     367.45135000     367.45135000     367.45135000     367.45135000     367.45135000     367.45135000     367.45135000     367.45135000     367.45135000
         367.45135000     367.45135000  2.00000000E+06  2.00000000E+06  2.00000000E+06  2.00000000E+06  2.00000000E+06  2.00000000E+06     367.45135000     367.45135000     367.45135000     367.45135000     367.45135000     367.45135000     367.45135000     367.45135000     367.45135000     367.45135000     367.45135000     367.45135000     367.45135000     367.45135000     367.45135000     367.45135000     367.45135000
         367.45135000     367.45135000     367.45135000  2.00000000E+06  2.00000000E+06  2.00000000E+06  2.00000000E+06  2.00000000E+06     367.45135000     367.45135000     367.45135000     367.45135000     367.45135000     367.45135000     367.45135000     367.45135000     367.45135000     367.45135000     367.45135000     367.45135000     367.45135000     367.45135000     367.45135000     367.45135000     367.45135000
         367.45135000     367.45135000     367.45135000  2.00000000E+06  2.00000000E+06  2.00000000E+06  2.00000000E+06  2.00000000E+06  2.00000000E+06     367.45135000     367.45135000     367.45135000     367.45135000     367.45135000     367.45135000     367.45135000     367.45135000     367.45135000     367.45135000     367.45135000     367.45135000     367.45135000     367.45135000     367.45135000     367.45135000
         367.45135000     367.45135000     367.45135000     367.45135000  2.00000000E+06  2.00000000E+06  2.00000000E+06  2.00000000E+06  2.00000000E+06     367.45135000     367.45135000     367.45135000     367.45135000     367.45135000     367.45135000     367.45135000     367.45135000     367.45135000     367.45135000     367.45135000     367.45135000     367.45135000     367.45135000     367.45135000     367.45135000
         367.45135000     367.45135000     367.45135000     367.45135000  2.00000000E+06  2.00000000E+06  2.00000000E+06  2.00000000E+06  2.00000000E+06     367.45135000     367.45135000     367.45135000     367.45135000     367.45135000     367.45135000     367.45135000     367.45135000     367.45135000     367.45135000     367.45135000     367.45135000     367.45135000     367.45135000     367.45135000     367.45135000
         367.45135000     367.45135000     367.45135000     367.45135000  2.00000000E+06  2.00000000E+06  2.00000000E+06  2.00000000E+06  2.00000000E+06     367.45135000     367.45135000     367.45135000     367.45135000     367.45135000     367.45135000     367.45135000     367.45135000     367.45135000     367.45135000     367.45135000     367.45135000     367.45135000     367.45135000     367.45135000     367.45135000
         367.45135000     367.45135000     367.45135000     367.45135000     367.45135000  2.00000000E+06  2.00000000E+06  2.00000000E+06  2.00000000E+06     367.45135000     367.45135000     367.45135000     367.45135000     367.45135000     367.45135000     367.45135000     367.45135000     367.45135000     367.45135000     367.45135000     367.45135000     367.45135000     367.45135000     367.45135000     367.45135000
         367.45135000     367.45135000     367.45135000     367.45135000     367.45135000     367.45135000     367.45135000     367.45135000     367.45135000     367.45135000     367.45135000     367.45135000     367.45135000     367.45135000     367.45135000     367.45135000     367.45135000     367.45135000     367.45135000     367.45135000     367.45135000     367.45135000     367.45135000     367.45135000     367.45135000
         367.45135000     367.45135000     367.45135000     367.45135000     367.45135000     367.45135000     367.45135000     367.45135000     367.45135000     367.45135000     367.45135000     367.45135000     367.45135000     367.45135000     367.45135000     367.45135000     367.45135000     367.45135000     367.45135000     367.45135000     367.45135000     367.45135000     367.45135000     367.45135000     367.45135000
         367.45135000     367.45135000     367.45135000     367.45135000     367.45135000     367.45135000     367.45135000     367.45135000     367.45135000     367.45135000     367.45135000     367.45135000     367.45135000     367.45135000     367.45135000     367.45135000     367.45135000     367.45135000     367.45135000     367.45135000     367.45135000     367.45135000     367.45135000     367.45135000     367.45135000
         367.45135000     367.45135000     367.45135000     367.45135000     367.45135000     367.45135000     367.45135000     367.45135000     367.45135000     367.45135000     367.45135000     367.45135000     367.45135000     367.45135000     367.45135000     367.45135000     367.45135000     367.45135000     367.45135000     367.45135000     367.45135000     367.45135000     367.45135000     367.45135000     367.45135000
         367.45135000     367.45135000     367.45135000     367.45135000     367.45135000     367.45135000     367.45135000     367.45135000     367.45135000     367.45135000     367.45135000     367.45135000     367.45135000     367.45135000     367.45135000     367.45135000     367.45135000     367.45135000     367.45135000     367.45135000     367.45135000     367.45135000     367.45135000     367.45135000     367.45135000
         367.45135000     367.45135000     367.45135000     367.45135000     367.45135000     367.45135000     367.45135000     367.45135000     367.45135000     367.45135000     367.45135000     367.45135000     367.45135000     367.45135000     367.45135000     367.45135000     367.45135000     367.45135000     367.45135000     367.45135000     367.45135000     367.45135000     367.45135000     367.45135000     367.45135000
         367.45135000     367.45135000     367.45135000     367.45135000     367.45135000     367.45135000     367.45135000     367.45135000     367.45135000     367.45135000     367.45135000     367.45135000     367.45135000     367.45135000     367.45135000     367.45135000     367.45135000     367.45135000     367.45135000     367.45135000     367.45135000     367.45135000     367.45135000     367.45135000     367.45135000
         367.45135000     367.45135000     367.45135000     367.45135000     367.45135000     367.45135000     367.45135000     367.45135000     367.45135000     367.45135000     367.45135000     367.45135000     367.45135000     367.45135000     367.45135000     367.45135000     367.45135000     367.45135000     367.45135000     367.45135000     367.45135000     367.45135000     367.45135000     367.45135000     367.45135000
         367.45135000     367.45135000     367.45135000     367.45135000     367.45135000     367.45135000     367.45135000     367.45135000     367.45135000     367.45135000     367.45135000     367.45135000     367.45135000     367.45135000     367.45135000     367.45135000     367.45135000     367.45135000     367.45135000     367.45135000     367.45135000     367.45135000     367.45135000     367.45135000     367.45135000
         367.45135000     367.45135000     367.45135000     367.45135000     367.45135000     367.45135000     367.45135000     367.45135000     367.45135000     367.45135000     367.45135000     367.45135000     367.45135000     367.45135000     367.45135000     367.45135000     367.45135000     367.45135000     367.45135000     367.45135000     367.45135000     367.45135000     367.45135000     367.45135000     367.45135000
         367.45135000     367.45135000     367.45135000     367.45135000     367.45135000     367.45135000     367.45135000     367.45135000     367.45135000     367.45135000     367.45135000     367.45135000     367.45135000     367.45135000     367.45135000     367.45135000     367.45135000     367.45135000     367.45135000     367.45135000     367.45135000     367.45135000     367.45135000     367.45135000     367.45135000
         367.45135000     367.45135000     367.45135000     367.45135000     367.45135000     367.45135000     367.45135000     367.45135000     367.45135000     367.45135000     367.45135000     367.45135000     367.45135000     367.45135000     367.45135000     367.45135000     367.45135000     367.45135000     367.45135000     367.45135000     367.45135000     367.45135000     367.45135000     367.45135000     367.45135000
         367.45135000     367.45135000     367.45135000     367.45135000     367.45135000     367.45135000     367.45135000     367.45135000     367.45135000     367.45135000     367.45135000     367.45135000     367.45135000     367.45135000     367.45135000     367.45135000     367.45135000     367.45135000     367.45135000     367.45135000     367.45135000     367.45135000     367.45135000     367.45135000     367.45135000
         367.45135000     367.45135000     367.45135000     367.45135000     367.45135000     367.45135000     367.45135000     367.45135000     367.45135000     367.45135000     367.45135000     367.45135000     367.45135000     367.45135000     367.45135000     367.45135000     367.45135000     367.45135000     367.45135000     367.45135000     367.45135000     367.45135000     367.45135000     367.45135000     367.45135000
         367.45135000     367.45135000     367.45135000     367.45135000     367.45135000     367.45135000     367.45135000     367.45135000     367.45135000     367.45135000     367.45135000     367.45135000     367.45135000     367.45135000     367.45135000     367.45135000     367.45135000     367.45135000     367.45135000     367.45135000     367.45135000     367.45135000     367.45135000     367.45135000     367.45135000
         367.45135000     367.45135000     367.45135000     367.45135000     367.45135000     367.45135000     367.45135000     367.45135000     367.45135000     367.45135000     367.45135000     367.45135000     367.45135000     367.45135000     367.45135000     367.45135000     367.45135000     367.45135000     367.45135000     367.45135000     367.45135000     367.45135000     367.45135000     367.45135000     367.45135000
         367.45135000     367.45135000     367.45135000     367.45135000     367.45135000     367.45135000     367.45135000     367.45135000     367.45135000     367.45135000     367.45135000     367.45135000     367.45135000     367.45135000     367.45135000     367.45135000     367.45135000     367.45135000     367.45135000     367.45135000     367.45135000     367.45135000     367.45135000     367.45135000     367.45135000