BEGIN options
END options

BEGIN griddata
  iconvert
    INTERNAL  FACTOR  1
    0  0  0  0  0  0  0  0  0  0  0  0  0  0  0  0  0  0  0  0  0  0  0  0  0
    0  0  0  0  0  0  0  0  0  0  0  0  0  0  0  0  0  0  0  0  0  0  0  0  0
    0  0  0  0  0  0  0  0  0  0  0  0  0  0  0  0  0  0  0  0  0  0  0  0  0
    0  0  0  0  0  0  0  0  0  0  0  0  0  0  0  0  0  0  0  0  0  0  0  0  0
    0  0  0  0  0  0  0  0  0  0  0  0  0  0  0  0  0  0  0  0  0  0  0  0  0
    0  0  0  0  0  0  0  0  0  0  0  0  0  0  0  0  0  0  0  0  0  0  0  0  0
    0  0  0  0  0  0  0  0  0  0  0  0  0  0  0  0  0  0  0  0  0  0  0  0  0
    0  0  0  0  0  0  0  0  0  0  0  0  0  0  0  0  0  0  0  0  0  0  0  0  0
    0  0  0  0  0  0  0  0  0  0  0  0  0  0  0  0  0  0  0  0  0  0  0  0  0
    0  0  0  0  0  0  0  0  0  0  0  0  0  0  0  0  0  0  0  0  0  0  0  0  0
    0  0  0  0  0  0  0  0  0  0  0  0  0  0  0  0  0  0  0  0  0  0  0  0  0
    0  0  0  0  0  0  0  0  0  0  0  0  0  0  0  0  0  0  0  0  0  0  0  0  0
    0  0  0  0  0  0  0  0  0  0  0  0  0  0  0  0  0  0  0  0  0  0  0  0  0
    0  0  0  0  0  0  0  0  0  0  0  0  0  0  0  0  0  0  0  0  0  0  0  0  0
    0  0  0  0  0  0  0  0  0  0  0  0  0  0  0  0  0  0  0  0  0  0  0  0  0
    0  0  0  0  0  0  0  0  0  0  0  0  0  0  0  0  0  0  0  0  0  0  0  0  0
    0  0  0  0  0  0  0  0  0  0  0  0  0  0  0  0  0  0  0  0  0  0  0  0  0
    0  0  0  0  0  0  0  0  0  0  0  0  0  0  0  0  0  0  0  0  0  0  0  0  0
    0  0  0  0  0  0  0  0  0  0  0  0  0  0  0  0  0  0  0  0  0  0  0  0  0
    0  0  0  0  0  0  0  0  0  0  0  0  0  0  0  0  0  0  0  0  0  0  0  0  0
    0  0  0  0  0  0  0  0  0  0  0  0  0  0  0  0  0  0  0  0  0  0  0  0  0
    0  0  0  0  0  0  0  0  0  0  0  0  0  0  0  0  0  0  0  0  0  0  0  0  0
    0  0  0  0  0  0  0  0  0  0  0  0  0  0  0  0  0  0  0  0  0  0  0  0  0
    0  0  0  0  0  0  0  0  0  0  0  0  0  0  0  0  0  0  0  0  0  0  0  0  0
    0  0  0  0  0  0  0  0  0  0  0  0  0  0  0  0  0  0  0  0  0  0  0  0  0
    0  0  0  0  0  0  0  0  0  0  0  0  0  0  0  0  0  0  0  0  0  0  0  0  0
    0  0  0  0  0  0  0  0  0  0  0  0  0  0  0  0  0  0  0  0  0  0  0  0  0
    0  0  0  0  0  0  0  0  0  0  0  0  0  0  0  0  0  0  0  0  0  0  0  0  0
    0  0  0  0  0  0  0  0  0  0  0  0  0  0  0  0  0  0  0  0  0  0  0  0  0
    0  0  0  0  0  0  0  0  0  0  0  0  0  0  0  0  0  0  0  0  0  0  0  0  0
    0  0  0  0  0  0  0  0  0  0  0  0  0  0  0  0  0  0  0  0  0  0  0  0  0
    0  0  0  0  0  0  0  0  0  0  0  0  0  0  0  0  0  0  0  0  0  0  0  0  0
    0  0  0  0  0  0  0  0  0  0  0  0  0  0  0  0  0  0  0  0  0  0  0  0  0
    0  0  0  0  0  0  0  0  0  0  0  0  0  0  0  0  0  0  0  0  0  0  0  0  0
    0  0  0  0  0  0  0  0  0  0  0  0  0  0  0  0  0  0  0  0  0  0  0  0  0
    0  0  0  0  0  0  0  0  0  0  0  0  0  0  0  0  0  0  0  0  0  0  0  0  0
    0  0  0  0  0  0  0  0  0  0  0  0  0  0  0  0  0  0  0  0  0  0  0  0  0
    0  0  0  0  0  0  0  0  0  0  0  0  0  0  0  0  0  0  0  0  0  0  0  0  0
    0  0  0  0  0  0  0  0  0  0  0  0  0  0  0  0  0  0  0  0  0  0  0  0  0
    0  0  0  0  0  0  0  0  0  0  0  0  0  0  0  0  0  0  0  0  0  0  0  0  0
    0  0  0  0  0  0  0  0  0  0  0  0  0  0  0  0  0  0  0  0  0  0  0  0  0
    0  0  0  0  0  0  0  0  0  0  0  0  0  0  0  0  0  0  0  0  0  0  0  0  0
    0  0  0  0  0  0  0  0  0  0  0  0  0  0  0  0  0  0  0  0  0  0  0  0  0
    0  0  0  0  0  0  0  0  0  0  0  0  0  0  0  0  0  0  0  0  0  0  0  0  0
    0  0  0  0  0  0  0  0  0  0  0  0  0  0  0  0  0  0  0  0  0  0  0  0  0
    0  0  0  0  0  0  0  0  0  0  0  0  0  0  0  0  0  0  0  0  0  0  0  0  0
    0  0  0  0  0  0  0  0  0  0  0  0  0  0  0  0  0  0  0  0  0  0  0  0  0
    0  0  0  0  0  0  0  0  0  0  0  0  0  0  0  0  0  0  0  0  0  0  0  0  0
    0  0  0  0  0  0  0  0  0  0  0  0  0  0  0  0  0  0  0  0  0  0  0  0  0
    0  0  0  0  0  0  0  0  0  0  0  0  0  0  0  0  0  0  0  0  0  0  0  0  0
    0  0  0  0  0  0  0  0  0  0  0  0  0  0  0  0  0  0  0  0  0  0  0  0  0
    0  0  0  0  0  0  0  0  0  0  0  0  0  0  0  0  0  0  0  0  0  0  0  0  0
    0  0  0  0  0  0  0  0  0  0  0  0  0  0  0  0  0  0  0  0  0  0  0  0  0
    0  0  0  0  0  0  0  0  0  0  0  0  0  0  0  0  0  0  0  0  0  0  0  0  0
    0  0  0  0  0  0  0  0  0  0  0  0  0  0  0  0  0  0  0  0  0  0  0  0  0
    0  0  0  0  0  0  0  0  0  0  0  0  0  0  0  0  0  0  0  0  0  0  0  0  0
    0  0  0  0  0  0  0  0  0  0  0  0  0  0  0  0  0  0  0  0  0  0  0  0  0
    0  0  0  0  0  0  0  0  0  0  0  0  0  0  0  0  0  0  0  0  0  0  0  0  0
    0  0  0  0  0  0  0  0  0  0  0  0  0  0  0  0  0  0  0  0  0  0  0  0  0
    0  0  0  0  0  0  0  0  0  0  0  0  0  0  0  0  0  0  0  0  0  0  0  0  0
    0  0  0  0  0  0  0  0  0  0  0  0  0  0  0  0  0  0  0  0  0  0  0  0  0
    0  0  0  0  0  0  0  0  0  0  0  0  0  0  0  0  0  0  0  0  0  0  0  0  0
    0  0  0  0  0  0  0  0  0  0  0  0  0  0  0  0  0  0  0  0  0  0  0  0  0
    0  0  0  0  0  0  0  0  0  0  0  0  0  0  0  0  0  0  0  0  0  0  0  0  0
    0  0  0  0  0  0  0  0  0  0  0  0  0  0  0  0  0  0  0  0  0  0  0  0  0
    0  0  0  0  0  0  0  0  0  0  0  0  0  0  0  0  0  0  0  0  0  0  0  0  0
    0  0  0  0  0  0  0  0  0  0  0  0  0  0  0  0  0  0  0  0  0  0  0  0  0
    0  0  0  0  0  0  0  0  0  0  0  0  0  0  0  0  0  0  0  0  0  0  0  0  0
    0  0  0  0  0  0  0  0  0  0  0  0  0  0  0  0  0  0  0  0  0  0  0  0  0
    0  0  0  0  0  0  0  0  0  0  0  0  0  0  0  0  0  0  0  0  0  0  0  0  0
    0  0  0  0  0  0  0  0  0  0  0  0  0  0  0  0  0  0  0  0  0  0  0  0  0
    0  0  0  0  0  0  0  0  0  0  0  0  0  0  0  0  0  0  0  0  0  0  0  0  0
    0  0  0  0  0  0  0  0  0  0  0  0  0  0  0  0  0  0  0  0  0  0  0  0  0
    0  0  0  0  0  0  0  0  0  0  0  0  0  0  0  0  0  0  0  0  0  0  0  0  0
    0  0  0  0  0  0  0  0  0  0  0  0  0  0  0  0  0  0  0  0  0  0  0  0  0
    0  0  0  0  0  0  0  0  0  0  0  0  0  0  0  0  0  0  0  0  0  0  0  0  0
    0  0  0  0  0  0  0  0  0  0  0  0  0  0  0  0  0  0  0  0  0  0  0  0  0
    0  0  0  0  0  0  0  0  0  0  0  0  0  0  0  0  0  0  0  0  0  0  0  0  0
    0  0  0  0  0  0  0  0  0  0  0  0  0  0  0  0  0  0  0  0  0  0  0  0  0
    0  0  0  0  0  0  0  0  0  0  0  0  0  0  0  0  0  0  0  0  0  0  0  0  0
    0  0  0  0  0  0  0  0  0  0  0  0  0  0  0  0  0  0  0  0  0  0  0  0  0
    0  0  0  0  0  0  0  0  0  0  0  0  0  0  0  0  0  0  0  0  0  0  0  0  0
    0  0  0  0  0  0  0  0  0  0  0  0  0  0  0  0  0  0  0  0  0  0  0  0  0
    0  0  0  0  0  0  0  0  0  0  0  0  0  0  0  0  0  0  0  0  0  0  0  0  0
    0  0  0  0  0  0  0  0  0  0  0  0  0  0  0  0  0  0  0  0  0  0  0  0  0
    0  0  0  0  0  0  0  0  0  0  0  0  0  0  0  0  0  0  0  0  0  0  0  0  0
    0  0  0  0  0  0  0  0  0  0  0  0  0  0  0  0  0  0  0  0  0  0  0  0  0
    0  0  0  0  0  0  0  0  0  0  0  0  0  0  0  0  0  0  0  0  0  0  0  0  0
    0  0  0  0  0  0  0  0  0  0  0  0  0  0  0  0  0  0  0  0  0  0  0  0  0
    0  0  0  0  0  0  0  0  0  0  0  0  0  0  0  0  0  0  0  0  0  0  0  0  0
    0  0  0  0  0  0  0  0  0  0  0  0  0  0  0  0  0  0  0  0  0  0  0  0  0
    0  0  0  0  0  0  0  0  0  0  0  0  0  0  0  0  0  0  0  0  0  0  0  0  0
    0  0  0  0  0  0  0  0  0  0  0  0  0  0  0  0  0  0  0  0  0  0  0  0  0
    0  0  0  0  0  0  0  0  0  0  0  0  0  0  0  0  0  0  0  0  0  0  0  0  0
    0  0  0  0  0  0  0  0  0  0  0  0  0  0  0  0  0  0  0  0  0  0  0  0  0
    0  0  0  0  0  0  0  0  0  0  0  0  0  0  0  0  0  0  0  0  0  0  0  0  0
    0  0  0  0  0  0  0  0  0  0  0  0  0  0  0  0  0  0  0  0  0  0  0  0  0
    0  0  0  0  0  0  0  0  0  0  0  0  0  0  0  0  0  0  0  0  0  0  0  0  0
    0  0  0  0  0  0  0  0  0  0  0  0  0  0  0  0  0  0  0  0  0  0  0  0  0
    0  0  0  0  0  0  0  0  0  0  0  0  0  0  0  0  0  0  0  0  0  0  0  0  0
    0  0  0  0  0  0  0  0  0  0  0  0  0  0  0  0  0  0  0  0  0  0  0  0  0
    0  0  0  0  0  0  0  0  0  0  0  0  0  0  0  0  0  0  0  0  0  0  0  0  0
    0  0  0  0  0  0  0  0  0  0  0  0  0  0  0  0  0  0  0  0  0  0  0  0  0
    0  0  0  0  0  0  0  0  0  0  0  0  0  0  0  0  0  0  0  0  0  0  0  0  0
    0  0  0  0  0  0  0  0  0  0  0  0  0  0  0  0  0  0  0  0  0  0  0  0  0
    0  0  0  0  0  0  0  0  0  0  0  0  0  0  0  0  0  0  0  0  0  0  0  0  0
    0  0  0  0  0  0  0  0  0  0  0  0  0  0  0  0  0  0  0  0  0  0  0  0  0
    0  0  0  0  0  0  0  0  0  0  0  0  0  0  0  0  0  0  0  0  0  0  0  0  0
    0  0  0  0  0  0  0  0  0  0  0  0  0  0  0  0  0  0  0  0  0  0  0  0  0
    0  0  0  0  0  0  0  0  0  0  0  0  0  0  0  0  0  0  0  0  0  0  0  0  0
    0  0  0  0  0  0  0  0  0  0  0  0  0  0  0  0  0  0  0  0  0  0  0  0  0
    0  0  0  0  0  0  0  0  0  0  0  0  0  0  0  0  0  0  0  0  0  0  0  0  0
    0  0  0  0  0  0  0  0  0  0  0  0  0  0  0  0  0  0  0  0  0  0  0  0  0
    0  0  0  0  0  0  0  0  0  0  0  0  0  0  0  0  0  0  0  0  0  0  0  0  0
    0  0  0  0  0  0  0  0  0  0  0  0  0  0  0  0  0  0  0  0  0  0  0  0  0
    0  0  0  0  0  0  0  0  0  0  0  0  0  0  0  0  0  0  0  0  0  0  0  0  0
    0  0  0  0  0  0  0  0  0  0  0  0  0  0  0  0  0  0  0  0  0  0  0  0  0
    0  0  0  0  0  0  0  0  0  0  0  0  0  0  0  0  0  0  0  0  0  0  0  0  0
    0  0  0  0  0  0  0  0  0  0  0  0  0  0  0  0  0  0  0  0  0  0  0  0  0
    0  0  0  0  0  0  0  0  0  0  0  0  0  0  0  0  0  0  0  0  0  0  0  0  0
    0  0  0  0  0  0  0  0  0  0  0  0  0  0  0  0  0  0  0  0  0  0  0  0  0
    0  0  0  0  0  0  0  0  0  0  0  0  0  0  0  0  0  0  0  0  0  0  0  0  0
    0  0  0  0  0  0  0  0  0  0  0  0  0  0  0  0  0  0  0  0  0  0  0  0  0
    0  0  0  0  0  0  0  0  0  0  0  0  0  0  0  0  0  0  0  0  0  0  0  0  0
    0  0  0  0  0  0  0  0  0  0  0  0  0  0  0  0  0  0  0  0  0  0  0  0  0
    0  0  0  0  0  0  0  0  0  0  0  0  0  0  0  0  0  0  0  0  0  0  0  0  0
    0  0  0  0  0  0  0  0  0  0  0  0  0  0  0  0  0  0  0  0  0  0  0  0  0
    0  0  0  0  0  0  0  0  0  0  0  0  0  0  0  0  0  0  0  0  0  0  0  0  0
    0  0  0  0  0  0  0  0  0  0  0  0  0  0  0  0  0  0  0  0  0  0  0  0  0
    0  0  0  0  0  0  0  0  0  0  0  0  0  0  0  0  0  0  0  0  0  0  0  0  0
    0  0  0  0  0  0  0  0  0  0  0  0  0  0  0  0  0  0  0  0  0  0  0  0  0
    0  0  0  0  0  0  0  0  0  0  0  0  0  0  0  0  0  0  0  0  0  0  0  0  0
    0  0  0  0  0  0  0  0  0  0  0  0  0  0  0  0  0  0  0  0  0  0  0  0  0
    0  0  0  0  0  0  0  0  0  0  0  0  0  0  0  0  0  0  0  0  0  0  0  0  0
    0  0  0  0  0  0  0  0  0  0  0  0  0  0  0  0  0  0  0  0  0  0  0  0  0
    0  0  0  0  0  0  0  0  0  0  0  0  0  0  0  0  0  0  0  0  0  0  0  0  0
    0  0  0  0  0  0  0  0  0  0  0  0  0  0  0  0  0  0  0  0  0  0  0  0  0
    0  0  0  0  0  0  0  0  0  0  0  0  0  0  0  0  0  0  0  0  0  0  0  0  0
    0  0  0  0  0  0  0  0  0  0  0  0  0  0  0  0  0  0  0  0  0  0  0  0  0
    0  0  0  0  0  0  0  0  0  0  0  0  0  0  0  0  0  0  0  0  0  0  0  0  0
    0  0  0  0  0  0  0  0  0  0  0  0  0  0  0  0  0  0  0  0  0  0  0  0  0
    0  0  0  0  0  0  0  0  0  0  0  0  0  0  0  0  0  0  0  0  0  0  0  0  0
    0  0  0  0  0  0  0  0  0  0  0  0  0  0  0  0  0  0  0  0  0  0  0  0  0
    0  0  0  0  0  0  0  0  0  0  0  0  0  0  0  0  0  0  0  0  0  0  0  0  0
    0  0  0  0  0  0  0  0  0  0  0  0  0  0  0  0  0  0  0  0  0  0  0  0  0
    0  0  0  0  0  0  0  0  0  0  0  0  0  0  0  0  0  0  0  0  0  0  0  0  0
    0  0  0  0  0  0  0  0  0  0  0  0  0  0  0  0  0  0  0  0  0  0  0  0  0
    0  0  0  0  0  0  0  0  0  0  0  0  0  0  0  0  0  0  0  0  0  0  0  0  0
    0  0  0  0  0  0  0  0  0  0  0  0  0  0  0  0  0  0  0  0  0  0  0  0  0
    0  0  0  0  0  0  0  0  0  0  0  0  0  0  0  0  0  0  0  0  0  0  0  0  0
    0  0  0  0  0  0  0  0  0  0  0  0  0  0  0  0  0  0  0  0  0  0  0  0  0
    0  0  0  0  0  0  0  0  0  0  0  0  0  0  0  0  0  0  0  0  0  0  0  0  0
    0  0  0  0  0  0  0  0  0  0  0  0  0  0  0  0  0  0  0  0  0  0  0  0  0
    0  0  0  0  0  0  0  0  0  0  0  0  0  0  0  0  0  0  0  0  0  0  0  0  0
    0  0  0  0  0  0  0  0  0  0  0  0  0  0  0  0  0  0  0  0  0  0  0  0  0
    0  0  0  0  0  0  0  0  0  0  0  0  0  0  0  0  0  0  0  0  0  0  0  0  0
    0  0  0  0  0  0  0  0  0  0  0  0  0  0  0  0  0  0  0  0  0  0  0  0  0
    0  0  0  0  0  0  0  0  0  0  0  0  0  0  0  0  0  0  0  0  0  0  0  0  0
    0  0  0  0  0  0  0  0  0  0  0  0  0  0  0  0  0  0  0  0  0  0  0  0  0
    0  0  0  0  0  0  0  0  0  0  0  0  0  0  0  0  0  0  0  0  0  0  0  0  0
    0  0  0  0  0  0  0  0  0  0  0  0  0  0  0  0  0  0  0  0  0  0  0  0  0
    0  0  0  0  0  0  0  0  0  0  0  0  0  0  0  0  0  0  0  0  0  0  0  0  0
    0  0  0  0  0  0  0  0  0  0  0  0  0  0  0  0  0  0  0  0  0  0  0  0  0
    0  0  0  0  0  0  0  0  0  0  0  0  0  0  0  0  0  0  0  0  0  0  0  0  0
    0  0  0  0  0  0  0  0  0  0  0  0  0  0  0  0  0  0  0  0  0  0  0  0  0
    0  0  0  0  0  0  0  0  0  0  0  0  0  0  0  0  0  0  0  0  0  0  0  0  0
    0  0  0  0  0  0  0  0  0  0  0  0  0  0  0  0  0  0  0  0  0  0  0  0  0
    0  0  0  0  0  0  0  0  0  0  0  0  0  0  0  0  0  0  0  0  0  0  0  0  0
    0  0  0  0  0  0  0  0  0  0  0  0  0  0  0  0  0  0  0  0  0  0  0  0  0
    0  0  0  0  0  0  0  0  0  0  0  0  0  0  0  0  0  0  0  0  0  0  0  0  0
    0  0  0  0  0  0  0  0  0  0  0  0  0  0  0  0  0  0  0  0  0  0  0  0  0
    0  0  0  0  0  0  0  0  0  0  0  0  0  0  0  0  0  0  0  0  0  0  0  0  0
    0  0  0  0  0  0  0  0  0  0  0  0  0  0  0  0  0  0  0  0  0  0  0  0  0
    0  0  0  0  0  0  0  0  0  0  0  0  0  0  0  0  0  0  0  0  0  0  0  0  0
    0  0  0  0  0  0  0  0  0  0  0  0  0  0  0  0  0  0  0  0  0  0  0  0  0
    0  0  0  0  0  0  0  0  0  0  0  0  0  0  0  0  0  0  0  0  0  0  0  0  0
    0  0  0  0  0  0  0  0  0  0  0  0  0  0  0  0  0  0  0  0  0  0  0  0  0
    0  0  0  0  0  0  0  0  0  0  0  0  0  0  0  0  0  0  0  0  0  0  0  0  0
    0  0  0  0  0  0  0  0  0  0  0  0  0  0  0  0  0  0  0  0  0  0  0  0  0
    0  0  0  0  0  0  0  0  0  0  0  0  0  0  0  0  0  0  0  0  0  0  0  0  0
    0  0  0  0  0  0  0  0  0  0  0  0  0  0  0  0  0  0  0  0  0  0  0  0  0
    0  0  0  0  0  0  0  0  0  0  0  0  0  0  0  0  0  0  0  0  0  0  0  0  0
    0  0  0  0  0  0  0  0  0  0  0  0  0  0  0  0  0  0  0  0  0  0  0  0  0
    0  0  0  0  0  0  0  0  0  0  0  0  0  0  0  0  0  0  0  0  0  0  0  0  0
    0  0  0  0  0  0  0  0  0  0  0  0  0  0  0  0  0  0  0  0  0  0  0  0  0
    0  0  0  0  0  0  0  0  0  0  0  0  0  0  0  0  0  0  0  0  0  0  0  0  0
    0  0  0  0  0  0  0  0  0  0  0  0  0  0  0  0  0  0  0  0  0  0  0  0  0
    0  0  0  0  0  0  0  0  0  0  0  0  0  0  0  0  0  0  0  0  0  0  0  0  0
    0  0  0  0  0  0  0  0  0  0  0  0  0  0  0  0  0  0  0  0  0  0  0  0  0
    0  0  0  0  0  0  0  0  0  0  0  0  0  0  0  0  0  0  0  0  0  0  0  0  0
    0  0  0  0  0  0  0  0  0  0  0  0  0  0  0  0  0  0  0  0  0  0  0  0  0
    0  0  0  0  0  0  0  0  0  0  0  0  0  0  0  0  0  0  0  0  0  0  0  0  0
    0  0  0  0  0  0  0  0  0  0  0  0  0  0  0  0  0  0  0  0  0  0  0  0  0
    0  0  0  0  0  0  0  0  0  0  0  0  0  0  0  0  0  0  0  0  0  0  0  0  0
    0  0  0  0  0  0  0  0  0  0  0  0  0  0  0  0  0  0  0  0  0  0  0  0  0
    0  0  0  0  0  0  0  0  0  0  0  0  0  0  0  0  0  0  0  0  0  0  0  0  0
    0  0  0  0  0  0  0  0  0  0  0  0  0  0  0  0  0  0  0  0  0  0  0  0  0
    0  0  0  0  0  0  0  0  0  0  0  0  0  0  0  0  0  0  0  0  0  0  0  0  0
    0  0  0  0  0  0  0  0  0  0  0  0  0  0  0  0  0  0  0  0  0  0  0  0  0
    0  0  0  0  0  0  0  0  0  0  0  0  0  0  0  0  0  0  0  0  0  0  0  0  0
  ss  LAYERED
    INTERNAL  FACTOR  1.0
      5.00000000E-05  5.00000000E-05  5.00000000E-05  5.00000000E-05  5.00000000E-05  5.00000000E-05  5.00000000E-05  5.00000000E-05  5.00000000E-05  5.00000000E-05  5.00000000E-05  5.00000000E-05  5.00000000E-05  5.00000000E-05  5.00000000E-05  5.00000000E-05  5.00000000E-05  5.00000000E-05  5.00000000E-05  5.00000000E-05  5.00000000E-05  5.00000000E-05  5.00000000E-05  5.00000000E-05  5.00000000E-05
      5.00000000E-05  5.00000000E-05  5.00000000E-05  5.00000000E-05  5.00000000E-05  5.00000000E-05  5.00000000E-05  5.00000000E-05  5.00000000E-05  5.00000000E-05  5.00000000E-05  5.00000000E-05  5.00000000E-05  5.00000000E-05  5.00000000E-05  5.00000000E-05  5.00000000E-05  5.00000000E-05  5.00000000E-05  5.00000000E-05  5.00000000E-05  5.00000000E-05  5.00000000E-05  5.00000000E-05  5.00000000E-05
      5.00000000E-05  5.00000000E-05  5.00000000E-05  5.00000000E-05  5.00000000E-05  5.00000000E-05  5.00000000E-05  5.00000000E-05  5.00000000E-05  5.00000000E-05  5.00000000E-05  5.00000000E-05  5.00000000E-05  5.00000000E-05  5.00000000E-05  5.00000000E-05  5.00000000E-05  5.00000000E-05  5.00000000E-05  5.00000000E-05  5.00000000E-05  5.00000000E-05  5.00000000E-05  5.00000000E-05  5.00000000E-05
      5.00000000E-05  5.00000000E-05  5.00000000E-05  5.00000000E-05  5.00000000E-05  5.00000000E-05  5.00000000E-05  5.00000000E-05  5.00000000E-05  5.00000000E-05  5.00000000E-05  5.00000000E-05  5.00000000E-05  5.00000000E-05  5.00000000E-05  5.00000000E-05  5.00000000E-05  5.00000000E-05  5.00000000E-05  5.00000000E-05  5.00000000E-05  5.00000000E-05  5.00000000E-05  5.00000000E-05  5.00000000E-05
      5.00000000E-05  5.00000000E-05  5.00000000E-05  5.00000000E-05  5.00000000E-05  5.00000000E-05  5.00000000E-05  5.00000000E-05  5.00000000E-05  5.00000000E-05  5.00000000E-05  5.00000000E-05  5.00000000E-05  5.00000000E-05  5.00000000E-05  5.00000000E-05  5.00000000E-05  5.00000000E-05  5.00000000E-05  5.00000000E-05  5.00000000E-05  5.00000000E-05  5.00000000E-05  5.00000000E-05  5.00000000E-05
      5.00000000E-05  5.00000000E-05  5.00000000E-05  5.00000000E-05  5.00000000E-05  5.00000000E-05  5.00000000E-05  5.00000000E-05  5.00000000E-05  5.00000000E-05  5.00000000E-05  5.00000000E-05  5.00000000E-05  5.00000000E-05  5.00000000E-05  5.00000000E-05  5.00000000E-05  5.00000000E-05  5.00000000E-05  5.00000000E-05  5.00000000E-05  5.00000000E-05  5.00000000E-05  5.00000000E-05  5.00000000E-05
      5.00000000E-05  5.00000000E-05  5.00000000E-05  5.00000000E-05  5.00000000E-05  5.00000000E-05  5.00000000E-05  5.00000000E-05  5.00000000E-05  5.00000000E-05  5.00000000E-05  5.00000000E-05  5.00000000E-05  5.00000000E-05  5.00000000E-05  5.00000000E-05  5.00000000E-05  5.00000000E-05  5.00000000E-05  5.00000000E-05  5.00000000E-05  5.00000000E-05  5.00000000E-05  5.00000000E-05  5.00000000E-05
      5.00000000E-05  5.00000000E-05  5.00000000E-05  5.00000000E-05  5.00000000E-05  5.00000000E-05  5.00000000E-05  5.00000000E-05  5.00000000E-05  5.00000000E-05  5.00000000E-05  5.00000000E-05  5.00000000E-05  5.00000000E-05  5.00000000E-05  5.00000000E-05  5.00000000E-05  5.00000000E-05  5.00000000E-05  5.00000000E-05  5.00000000E-05  5.00000000E-05  5.00000000E-05  5.00000000E-05  5.00000000E-05
      5.00000000E-05  5.00000000E-05  5.00000000E-05  5.00000000E-05  5.00000000E-05  5.00000000E-05  5.00000000E-05  5.00000000E-05  5.00000000E-05  5.00000000E-05  5.00000000E-05  5.00000000E-05  5.00000000E-05  5.00000000E-05  5.00000000E-05  5.00000000E-05  5.00000000E-05  5.00000000E-05  5.00000000E-05  5.00000000E-05  5.00000000E-05  5.00000000E-05  5.00000000E-05  5.00000000E-05  5.00000000E-05
      5.00000000E-05  5.00000000E-05  5.00000000E-05  5.00000000E-05  5.00000000E-05  5.00000000E-05  5.00000000E-05  5.00000000E-05  5.00000000E-05  5.00000000E-05  5.00000000E-05  5.00000000E-05  5.00000000E-05  5.00000000E-05  5.00000000E-05  5.00000000E-05  5.00000000E-05  5.00000000E-05  5.00000000E-05  5.00000000E-05  5.00000000E-05  5.00000000E-05  5.00000000E-05  5.00000000E-05  5.00000000E-05
      5.00000000E-05  5.00000000E-05  5.00000000E-05  5.00000000E-05  5.00000000E-05  5.00000000E-05  5.00000000E-05  5.00000000E-05  5.00000000E-05  5.00000000E-05  5.00000000E-05  5.00000000E-05  5.00000000E-05  5.00000000E-05  5.00000000E-05  5.00000000E-05  5.00000000E-05  5.00000000E-05  5.00000000E-05  5.00000000E-05  5.00000000E-05  5.00000000E-05  5.00000000E-05  5.00000000E-05  5.00000000E-05
      5.00000000E-05  5.00000000E-05  5.00000000E-05  5.00000000E-05  5.00000000E-05  5.00000000E-05  5.00000000E-05  5.00000000E-05  5.00000000E-05  5.00000000E-05  5.00000000E-05  5.00000000E-05  5.00000000E-05  5.00000000E-05  5.00000000E-05  5.00000000E-05  5.00000000E-05  5.00000000E-05  5.00000000E-05  5.00000000E-05  5.00000000E-05  5.00000000E-05  5.00000000E-05  5.00000000E-05  5.00000000E-05
      5.00000000E-05  5.00000000E-05  5.00000000E-05  5.00000000E-05  5.00000000E-05  5.00000000E-05  5.00000000E-05  5.00000000E-05  5.00000000E-05  5.00000000E-05  5.00000000E-05  5.00000000E-05  5.00000000E-05  5.00000000E-05  5.00000000E-05  5.00000000E-05  5.00000000E-05  5.00000000E-05  5.00000000E-05  5.00000000E-05  5.00000000E-05  5.00000000E-05  5.00000000E-05  5.00000000E-05  5.00000000E-05
      5.00000000E-05  5.00000000E-05  5.00000000E-05  5.00000000E-05  5.00000000E-05  5.00000000E-05  5.00000000E-05  5.00000000E-05  5.00000000E-05  5.00000000E-05  5.00000000E-05  5.00000000E-05  5.00000000E-05  5.00000000E-05  5.00000000E-05  5.00000000E-05  5.00000000E-05  5.00000000E-05  5.00000000E-05  5.00000000E-05  5.00000000E-05  5.00000000E-05  5.00000000E-05  5.00000000E-05  5.00000000E-05
      5.00000000E-05  5.00000000E-05  5.00000000E-05  5.00000000E-05  5.00000000E-05  5.00000000E-05  5.00000000E-05  5.00000000E-05  5.00000000E-05  5.00000000E-05  5.00000000E-05  5.00000000E-05  5.00000000E-05  5.00000000E-05  5.00000000E-05  5.00000000E-05  5.00000000E-05  5.00000000E-05  5.00000000E-05  5.00000000E-05  5.00000000E-05  5.00000000E-05  5.00000000E-05  5.00000000E-05  5.00000000E-05
      5.00000000E-05  5.00000000E-05  5.00000000E-05  5.00000000E-05  5.00000000E-05  5.00000000E-05  5.00000000E-05  5.00000000E-05  5.00000000E-05  5.00000000E-05  5.00000000E-05  5.00000000E-05  5.00000000E-05  5.00000000E-05  5.00000000E-05  5.00000000E-05  5.00000000E-05  5.00000000E-05  5.00000000E-05  5.00000000E-05  5.00000000E-05  5.00000000E-05  5.00000000E-05  5.00000000E-05  5.00000000E-05
      5.00000000E-05  5.00000000E-05  5.00000000E-05  5.00000000E-05  5.00000000E-05  5.00000000E-05  5.00000000E-05  5.00000000E-05  5.00000000E-05  5.00000000E-05  5.00000000E-05  5.00000000E-05  5.00000000E-05  5.00000000E-05  5.00000000E-05  5.00000000E-05  5.00000000E-05  5.00000000E-05  5.00000000E-05  5.00000000E-05  5.00000000E-05  5.00000000E-05  5.00000000E-05  5.00000000E-05  5.00000000E-05
      5.00000000E-05  5.00000000E-05  5.00000000E-05  5.00000000E-05  5.00000000E-05  5.00000000E-05  5.00000000E-05  5.00000000E-05  5.00000000E-05  5.00000000E-05  5.00000000E-05  5.00000000E-05  5.00000000E-05  5.00000000E-05  5.00000000E-05  5.00000000E-05  5.00000000E-05  5.00000000E-05  5.00000000E-05  5.00000000E-05  5.00000000E-05  5.00000000E-05  5.00000000E-05  5.00000000E-05  5.00000000E-05
      5.00000000E-05  5.00000000E-05  5.00000000E-05  5.00000000E-05  5.00000000E-05  5.00000000E-05  5.00000000E-05  5.00000000E-05  5.00000000E-05  5.00000000E-05  5.00000000E-05  5.00000000E-05  5.00000000E-05  5.00000000E-05  5.00000000E-05  5.00000000E-05  5.00000000E-05  5.00000000E-05  5.00000000E-05  5.00000000E-05  5.00000000E-05  5.00000000E-05  5.00000000E-05  5.00000000E-05  5.00000000E-05
      5.00000000E-05  5.00000000E-05  5.00000000E-05  5.00000000E-05  5.00000000E-05  5.00000000E-05  5.00000000E-05  5.00000000E-05  5.00000000E-05  5.00000000E-05  5.00000000E-05  5.00000000E-05  5.00000000E-05  5.00000000E-05  5.00000000E-05  5.00000000E-05  5.00000000E-05  5.00000000E-05  5.00000000E-05  5.00000000E-05  5.00000000E-05  5.00000000E-05  5.00000000E-05  5.00000000E-05  5.00000000E-05
      5.00000000E-05  5.00000000E-05  5.00000000E-05  5.00000000E-05  5.00000000E-05  5.00000000E-05  5.00000000E-05  5.00000000E-05  5.00000000E-05  5.00000000E-05  5.00000000E-05  5.00000000E-05  5.00000000E-05  5.00000000E-05  5.00000000E-05  5.00000000E-05  5.00000000E-05  5.00000000E-05  5.00000000E-05  5.00000000E-05  5.00000000E-05  5.00000000E-05  5.00000000E-05  5.00000000E-05  5.00000000E-05
      5.00000000E-05  5.00000000E-05  5.00000000E-05  5.00000000E-05  5.00000000E-05  5.00000000E-05  5.00000000E-05  5.00000000E-05  5.00000000E-05  5.00000000E-05  5.00000000E-05  5.00000000E-05  5.00000000E-05  5.00000000E-05  5.00000000E-05  5.00000000E-05  5.00000000E-05  5.00000000E-05  5.00000000E-05  5.00000000E-05  5.00000000E-05  5.00000000E-05  5.00000000E-05  5.00000000E-05  5.00000000E-05
      5.00000000E-05  5.00000000E-05  5.00000000E-05  5.00000000E-05  5.00000000E-05  5.00000000E-05  5.00000000E-05  5.00000000E-05  5.00000000E-05  5.00000000E-05  5.00000000E-05  5.00000000E-05  5.00000000E-05  5.00000000E-05  5.00000000E-05  5.00000000E-05  5.00000000E-05  5.00000000E-05  5.00000000E-05  5.00000000E-05  5.00000000E-05  5.00000000E-05  5.00000000E-05  5.00000000E-05  5.00000000E-05
      5.00000000E-05  5.00000000E-05  5.00000000E-05  5.00000000E-05  5.00000000E-05  5.00000000E-05  5.00000000E-05  5.00000000E-05  5.00000000E-05  5.00000000E-05  5.00000000E-05  5.00000000E-05  5.00000000E-05  5.00000000E-05  5.00000000E-05  5.00000000E-05  5.00000000E-05  5.00000000E-05  5.00000000E-05  5.00000000E-05  5.00000000E-05  5.00000000E-05  5.00000000E-05  5.00000000E-05  5.00000000E-05
      5.00000000E-05  5.00000000E-05  5.00000000E-05  5.00000000E-05  5.00000000E-05  5.00000000E-05  5.00000000E-05  5.00000000E-05  5.00000000E-05  5.00000000E-05  5.00000000E-05  5.00000000E-05  5.00000000E-05  5.00000000E-05  5.00000000E-05  5.00000000E-05  5.00000000E-05  5.00000000E-05  5.00000000E-05  5.00000000E-05  5.00000000E-05  5.00000000E-05  5.00000000E-05  5.00000000E-05  5.00000000E-05
      5.00000000E-05  5.00000000E-05  5.00000000E-05  5.00000000E-05  5.00000000E-05  5.00000000E-05  5.00000000E-05  5.00000000E-05  5.00000000E-05  5.00000000E-05  5.00000000E-05  5.00000000E-05  5.00000000E-05  5.00000000E-05  5.00000000E-05  5.00000000E-05  5.00000000E-05  5.00000000E-05  5.00000000E-05  5.00000000E-05  5.00000000E-05  5.00000000E-05  5.00000000E-05  5.00000000E-05  5.00000000E-05
      5.00000000E-05  5.00000000E-05  5.00000000E-05  5.00000000E-05  5.00000000E-05  5.00000000E-05  5.00000000E-05  5.00000000E-05  5.00000000E-05  5.00000000E-05  5.00000000E-05  5.00000000E-05  5.00000000E-05  5.00000000E-05  5.00000000E-05  5.00000000E-05  5.00000000E-05  5.00000000E-05  5.00000000E-05  5.00000000E-05  5.00000000E-05  5.00000000E-05  5.00000000E-05  5.00000000E-05  5.00000000E-05
      5.00000000E-05  5.00000000E-05  5.00000000E-05  5.00000000E-05  5.00000000E-05  5.00000000E-05  5.00000000E-05  5.00000000E-05  5.00000000E-05  5.00000000E-05  5.00000000E-05  5.00000000E-05  5.00000000E-05  5.00000000E-05  5.00000000E-05  5.00000000E-05  5.00000000E-05  5.00000000E-05  5.00000000E-05  5.00000000E-05  5.00000000E-05  5.00000000E-05  5.00000000E-05  5.00000000E-05  5.00000000E-05
      5.00000000E-05  5.00000000E-05  5.00000000E-05  5.00000000E-05  5.00000000E-05  5.00000000E-05  5.00000000E-05  5.00000000E-05  5.00000000E-05  5.00000000E-05  5.00000000E-05  5.00000000E-05  5.00000000E-05  5.00000000E-05  5.00000000E-05  5.00000000E-05  5.00000000E-05  5.00000000E-05  5.00000000E-05  5.00000000E-05  5.00000000E-05  5.00000000E-05  5.00000000E-05  5.00000000E-05  5.00000000E-05
      5.00000000E-05  5.00000000E-05  5.00000000E-05  5.00000000E-05  5.00000000E-05  5.00000000E-05  5.00000000E-05  5.00000000E-05  5.00000000E-05  5.00000000E-05  5.00000000E-05  5.00000000E-05  5.00000000E-05  5.00000000E-05  5.00000000E-05  5.00000000E-05  5.00000000E-05  5.00000000E-05  5.00000000E-05  5.00000000E-05  5.00000000E-05  5.00000000E-05  5.00000000E-05  5.00000000E-05  5.00000000E-05
      5.00000000E-05  5.00000000E-05  5.00000000E-05  5.00000000E-05  5.00000000E-05  5.00000000E-05  5.00000000E-05  5.00000000E-05  5.00000000E-05  5.00000000E-05  5.00000000E-05  5.00000000E-05  5.00000000E-05  5.00000000E-05  5.00000000E-05  5.00000000E-05  5.00000000E-05  5.00000000E-05  5.00000000E-05  5.00000000E-05  5.00000000E-05  5.00000000E-05  5.00000000E-05  5.00000000E-05  5.00000000E-05
      5.00000000E-05  5.00000000E-05  5.00000000E-05  5.00000000E-05  5.00000000E-05  5.00000000E-05  5.00000000E-05  5.00000000E-05  5.00000000E-05  5.00000000E-05  5.00000000E-05  5.00000000E-05  5.00000000E-05  5.00000000E-05  5.00000000E-05  5.00000000E-05  5.00000000E-05  5.00000000E-05  5.00000000E-05  5.00000000E-05  5.00000000E-05  5.00000000E-05  5.00000000E-05  5.00000000E-05  5.00000000E-05
      5.00000000E-05  5.00000000E-05  5.00000000E-05  5.00000000E-05  5.00000000E-05  5.00000000E-05  5.00000000E-05  5.00000000E-05  5.00000000E-05  5.00000000E-05  5.00000000E-05  5.00000000E-05  5.00000000E-05  5.00000000E-05  5.00000000E-05  5.00000000E-05  5.00000000E-05  5.00000000E-05  5.00000000E-05  5.00000000E-05  5.00000000E-05  5.00000000E-05  5.00000000E-05  5.00000000E-05  5.00000000E-05
      5.00000000E-05  5.00000000E-05  5.00000000E-05  5.00000000E-05  5.00000000E-05  5.00000000E-05  5.00000000E-05  5.00000000E-05  5.00000000E-05  5.00000000E-05  5.00000000E-05  5.00000000E-05  5.00000000E-05  5.00000000E-05  5.00000000E-05  5.00000000E-05  5.00000000E-05  5.00000000E-05  5.00000000E-05  5.00000000E-05  5.00000000E-05  5.00000000E-05  5.00000000E-05  5.00000000E-05  5.00000000E-05
      5.00000000E-05  5.00000000E-05  5.00000000E-05  5.00000000E-05  5.00000000E-05  5.00000000E-05  5.00000000E-05  5.00000000E-05  5.00000000E-05  5.00000000E-05  5.00000000E-05  5.00000000E-05  5.00000000E-05  5.00000000E-05  5.00000000E-05  5.00000000E-05  5.00000000E-05  5.00000000E-05  5.00000000E-05  5.00000000E-05  5.00000000E-05  5.00000000E-05  5.00000000E-05  5.00000000E-05  5.00000000E-05